Coordinates from ORCA-job p-NO2-Ph-N2-OTf-B3LYPG-aug-cc-pVDZ-scan-d29-49-n200
 OpenBabel01151817083D

 23 22  0  0  1  0  0  0  0  0999 V2000
   -1.2740   -0.2121   -5.6731 C   0  0  0  0  0  0  0  0  0  0  0  0
   -0.3726    0.7946   -5.0345 C   0  0  1  0  0  0  0  0  0  0  0  0
   -0.8926    1.5446   -3.9140 C   0  0  0  0  0  0  0  0  0  0  0  0
   -2.2679    1.6763   -3.7446 C   0  0  0  0  0  0  0  0  0  0  0  0
   -3.0315    0.5816   -4.1539 C   0  0  0  0  0  0  0  0  0  0  0  0
   -2.5282   -0.3020   -5.1642 C   0  0  0  0  0  0  0  0  0  0  0  0
   -0.9879   -0.7346   -6.5834 H   0  0  0  0  0  0  0  0  0  0  0  0
   -0.1548    1.5697   -5.8115 H   0  0  0  0  0  0  0  0  0  0  0  0
   -2.6953    2.4204   -3.0703 H   0  0  0  0  0  0  0  0  0  0  0  0
   -3.9966    0.3542   -3.7027 H   0  0  0  0  0  0  0  0  0  0  0  0
   -3.4635   -1.3062   -5.7328 N   0  0  0  0  0  0  0  0  0  0  0  0
   -4.5084   -1.5024   -5.1208 O   0  0  0  0  0  0  0  0  0  0  0  0
   -3.1186   -1.8940   -6.7500 O   0  0  0  0  0  0  0  0  0  0  0  0
   -0.7151    3.5495   -7.6306 N   0  0  0  0  0  0  0  0  0  0  0  0
   -0.4608    4.3656   -8.3289 N   0  0  0  0  0  0  0  0  0  0  0  0
    2.2998    0.6782   -5.4213 S   0  0  0  0  0  0  0  0  0  0  0  0
    2.6340   -0.8307   -6.5285 C   0  0  0  0  0  0  0  0  0  0  0  0
    1.9870    1.8060   -6.3258 O   0  0  0  0  0  0  0  0  0  0  0  0
    3.3711    0.7185   -4.4209 O   0  0  0  0  0  0  0  0  0  0  0  0
    0.9240    0.1488   -4.6872 O   0  0  0  0  0  0  0  0  0  0  0  0
    1.6008   -1.0001   -7.3679 F   0  0  0  0  0  0  0  0  0  0  0  0
    3.7447   -0.6022   -7.2305 F   0  0  0  0  0  0  0  0  0  0  0  0
    2.7854   -1.9223   -5.7804 F   0  0  0  0  0  0  0  0  0  0  0  0
  1  6  2  0  0  0  0
  1  2  1  0  0  0  0
  2  8  1  6  0  0  0
  2 20  1  0  0  0  0
  2  3  1  0  0  0  0
  3  4  1  0  0  0  0
  4  9  1  0  0  0  0
  5  4  1  0  0  0  0
  5 10  1  0  0  0  0
  6  5  1  0  0  0  0
  7  1  1  0  0  0  0
 11  6  1  0  0  0  0
 11 12  2  0  0  0  0
 13 11  2  0  0  0  0
 15 14  3  0  0  0  0
 16 20  1  0  0  0  0
 16 19  2  0  0  0  0
 17 23  1  0  0  0  0
 17 16  1  0  0  0  0
 18 16  2  0  0  0  0
 21 17  1  0  0  0  0
 22 17  1  0  0  0  0
M  RAD  3   3   3   4   2   5   2
M  END
