Coordinates from ORCA-job p-NO2-Ph-N2-OTf-B3LYPG-aug-cc-pVDZ-scan-d09-29-n200
 OpenBabel01151817083D

 23 23  0  0  1  0  0  0  0  0999 V2000
   -1.4444   -0.3131   -5.9567 C   0  0  0  0  0  0  0  0  0  0  0  0
   -0.5397    0.8617   -6.0434 C   0  0  1  0  0  0  0  0  0  0  0  0
   -1.1776    2.0857   -5.4856 C   0  0  0  0  0  0  0  0  0  0  0  0
   -2.2722    2.0282   -4.5531 C   0  0  0  0  0  0  0  0  0  0  0  0
   -2.9195    0.8497   -4.3471 C   0  0  0  0  0  0  0  0  0  0  0  0
   -2.5060   -0.2945   -5.1178 C   0  0  0  0  0  0  0  0  0  0  0  0
   -1.2112   -1.2007   -6.5377 H   0  0  0  0  0  0  0  0  0  0  0  0
   -0.1215    1.0173   -7.0401 H   0  0  0  0  0  0  0  0  0  0  0  0
   -2.5752    2.9385   -4.0379 H   0  0  0  0  0  0  0  0  0  0  0  0
   -3.7517    0.7607   -3.6570 H   0  0  0  0  0  0  0  0  0  0  0  0
   -3.3290   -1.5305   -5.0101 N   0  0  0  0  0  0  0  0  0  0  0  0
   -4.2507   -1.5162   -4.2003 O   0  0  0  0  0  0  0  0  0  0  0  0
   -3.0373   -2.4827   -5.7245 O   0  0  0  0  0  0  0  0  0  0  0  0
   -0.6683    3.2479   -5.8193 N   0  0  0  0  0  0  0  0  0  0  0  0
   -0.2222    4.2491   -6.1116 N   0  0  0  0  0  0  0  0  0  0  0  0
    2.1957    0.7909   -5.7034 S   0  0  0  0  0  0  0  0  0  0  0  0
    2.6297   -0.9072   -6.4395 C   0  0  0  0  0  0  0  0  0  0  0  0
    2.1416    1.7390   -6.8385 O   0  0  0  0  0  0  0  0  0  0  0  0
    3.0675    0.9921   -4.5387 O   0  0  0  0  0  0  0  0  0  0  0  0
    0.6861    0.4808   -5.1567 O   0  0  0  0  0  0  0  0  0  0  0  0
    1.7211   -1.2250   -7.3764 F   0  0  0  0  0  0  0  0  0  0  0  0
    3.8385   -0.8359   -6.9988 F   0  0  0  0  0  0  0  0  0  0  0  0
    2.6256   -1.8348   -5.4836 F   0  0  0  0  0  0  0  0  0  0  0  0
  1  6  2  0  0  0  0
  2  8  1  6  0  0  0
  2  1  1  0  0  0  0
  2  3  1  0  0  0  0
  2 20  1  0  0  0  0
  3  4  2  0  0  0  0
  4  5  1  0  0  0  0
  4  9  1  0  0  0  0
  5 10  1  0  0  0  0
  6 11  1  0  0  0  0
  6  5  1  0  0  0  0
  7  1  1  0  0  0  0
 11 12  2  0  0  0  0
 13 11  2  0  0  0  0
 14  3  1  0  0  0  0
 15 14  1  0  0  0  0
 16 20  1  0  0  0  0
 16 19  2  0  0  0  0
 17 16  1  0  0  0  0
 17 23  1  0  0  0  0
 18 16  2  0  0  0  0
 21 17  1  0  0  0  0
 22 17  1  0  0  0  0
M  RAD  3   5   2  14   2  15   3
M  END
