Coordinates from ORCA-job p-NO2-Ph-N2-OTf-B3LYPG-aug-cc-pVDZ-scan-d09-29-n200
 OpenBabel01151817083D

 23 23  0  0  1  0  0  0  0  0999 V2000
   -1.3858   -0.2211   -6.0123 C   0  0  0  0  0  0  0  0  0  0  0  0
   -0.5114    0.9854   -6.0478 C   0  0  1  0  0  0  0  0  0  0  0  0
   -1.1612    2.2423   -5.4265 C   0  0  0  0  0  0  0  0  0  0  0  0
   -2.2594    2.0170   -4.4566 C   0  0  0  0  0  0  0  0  0  0  0  0
   -2.8672    0.8187   -4.3339 C   0  0  0  0  0  0  0  0  0  0  0  0
   -2.4428   -0.2750   -5.1809 C   0  0  0  0  0  0  0  0  0  0  0  0
   -1.1267   -1.0709   -6.6386 H   0  0  0  0  0  0  0  0  0  0  0  0
   -0.1608    1.2210   -7.0582 H   0  0  0  0  0  0  0  0  0  0  0  0
   -2.5624    2.8785   -3.8620 H   0  0  0  0  0  0  0  0  0  0  0  0
   -3.6824    0.6606   -3.6342 H   0  0  0  0  0  0  0  0  0  0  0  0
   -3.2391   -1.5308   -5.1378 N   0  0  0  0  0  0  0  0  0  0  0  0
   -4.1654   -1.5722   -4.3343 O   0  0  0  0  0  0  0  0  0  0  0  0
   -2.9236   -2.4404   -5.8959 O   0  0  0  0  0  0  0  0  0  0  0  0
   -0.8029    3.1680   -5.6637 N   0  0  0  0  0  0  0  0  0  0  0  0
   -0.3873    4.2201   -5.9369 N   0  0  0  0  0  0  0  0  0  0  0  0
    2.2088    0.8063   -5.9046 S   0  0  0  0  0  0  0  0  0  0  0  0
    2.5433   -1.0296   -6.2759 C   0  0  0  0  0  0  0  0  0  0  0  0
    2.1197    1.4994   -7.2047 O   0  0  0  0  0  0  0  0  0  0  0  0
    3.1235    1.2066   -4.8303 O   0  0  0  0  0  0  0  0  0  0  0  0
    0.7011    0.6659   -5.2302 O   0  0  0  0  0  0  0  0  0  0  0  0
    1.6038   -1.4843   -7.1176 F   0  0  0  0  0  0  0  0  0  0  0  0
    3.7430   -1.1298   -6.8476 F   0  0  0  0  0  0  0  0  0  0  0  0
    2.5145   -1.7345   -5.1473 F   0  0  0  0  0  0  0  0  0  0  0  0
  1  6  2  0  0  0  0
  2  8  1  6  0  0  0
  2  1  1  0  0  0  0
  2  3  1  0  0  0  0
  2 20  1  0  0  0  0
  3  4  2  0  0  0  0
  4  5  1  0  0  0  0
  4  9  1  0  0  0  0
  5 10  1  0  0  0  0
  6 11  1  0  0  0  0
  6  5  1  0  0  0  0
  7  1  1  0  0  0  0
 11 12  2  0  0  0  0
 13 11  2  0  0  0  0
 14  3  1  0  0  0  0
 15 14  1  0  0  0  0
 16 20  1  0  0  0  0
 16 19  2  0  0  0  0
 17 16  1  0  0  0  0
 17 23  1  0  0  0  0
 18 16  2  0  0  0  0
 21 17  1  0  0  0  0
 22 17  1  0  0  0  0
M  RAD  3   5   2  14   2  15   3
M  END
