Coordinates from ORCA-job p-NO2-Ph-N2-OTf-B3LYPG-aug-cc-pVDZ-scan-d09-29-n200
 OpenBabel01151817083D

 23 22  0  0  0  0  0  0  0  0999 V2000
   -2.1188   -0.6706   -6.0534 C   0  0  0  0  0  0  0  0  0  0  0  0
   -1.1441    0.2088   -6.5407 C   0  0  0  0  0  0  0  0  0  0  0  0
   -1.1397    1.4332   -5.9171 C   0  0  0  0  0  0  0  0  0  0  0  0
   -1.8945    1.9017   -4.8627 C   0  0  0  0  0  0  0  0  0  0  0  0
   -2.8486    0.9945   -4.3975 C   0  0  0  0  0  0  0  0  0  0  0  0
   -2.9430   -0.2606   -5.0070 C   0  0  0  0  0  0  0  0  0  0  0  0
   -2.2170   -1.6710   -6.4663 H   0  0  0  0  0  0  0  0  0  0  0  0
   -0.4420   -0.0679   -7.3197 H   0  0  0  0  0  0  0  0  0  0  0  0
   -1.7553    2.8837   -4.4204 H   0  0  0  0  0  0  0  0  0  0  0  0
   -3.5076    1.2504   -3.5720 H   0  0  0  0  0  0  0  0  0  0  0  0
   -3.9702   -1.2085   -4.5040 N   0  0  0  0  0  0  0  0  0  0  0  0
   -4.6637   -0.8356   -3.5646 O   0  0  0  0  0  0  0  0  0  0  0  0
   -4.0645   -2.2884   -5.0730 O   0  0  0  0  0  0  0  0  0  0  0  0
   -0.0019    2.5385   -6.5115 N   0  0  0  0  0  0  0  0  0  0  0  0
    0.4764    3.3817   -7.0465 N   0  0  0  0  0  0  0  0  0  0  0  0
    2.1370    0.2668   -4.9997 S   0  0  0  0  0  0  0  0  0  0  0  0
    3.1269    0.2769   -6.6182 C   0  0  0  0  0  0  0  0  0  0  0  0
    1.5444    1.6766   -5.0067 O   0  0  0  0  0  0  0  0  0  0  0  0
    3.1352    0.0314   -3.9307 O   0  0  0  0  0  0  0  0  0  0  0  0
    1.1104   -0.7993   -5.2449 O   0  0  0  0  0  0  0  0  0  0  0  0
    2.2847    0.5523   -7.6602 F   0  0  0  0  0  0  0  0  0  0  0  0
    4.0808    1.2193   -6.6078 F   0  0  0  0  0  0  0  0  0  0  0  0
    3.6940   -0.9128   -6.8533 F   0  0  0  0  0  0  0  0  0  0  0  0
  1  6  1  0  0  0  0
  2  1  2  0  0  0  0
  2  3  1  0  0  0  0
  3  4  2  0  0  0  0
  4  9  1  0  0  0  0
  4  5  1  0  0  0  0
  5 10  1  0  0  0  0
  6 11  1  0  0  0  0
  6  5  2  0  0  0  0
  7  1  1  0  0  0  0
  8  2  1  0  0  0  0
 11 12  2  0  0  0  0
 13 11  2  0  0  0  0
 14  3  1  0  0  0  0
 15 14  1  0  0  0  0
 16 19  1  0  0  0  0
 17 22  1  0  0  0  0
 17 16  1  0  0  0  0
 18 16  2  0  0  0  0
 20 16  2  0  0  0  0
 21 17  1  0  0  0  0
 23 17  1  0  0  0  0
M  RAD  3  14   2  15   3  19   2
M  END
