Coordinates from ORCA-job p-NO2-Ph-N2-OTf-B3LYPG-aug-cc-pVDZ-scan-d09-29-n200
 OpenBabel01151817083D

 23 21  0  0  0  0  0  0  0  0999 V2000
   -2.1886   -0.8729   -5.6738 C   0  0  0  0  0  0  0  0  0  0  0  0
   -1.2948   -0.0798   -6.4213 C   0  0  0  0  0  0  0  0  0  0  0  0
   -1.3916    1.2130   -6.0370 C   0  0  0  0  0  0  0  0  0  0  0  0
   -2.1019    1.9343   -5.1294 C   0  0  0  0  0  0  0  0  0  0  0  0
   -2.9724    1.0918   -4.4146 C   0  0  0  0  0  0  0  0  0  0  0  0
   -2.9999   -0.2747   -4.7073 C   0  0  0  0  0  0  0  0  0  0  0  0
   -2.2228   -1.9477   -5.8378 H   0  0  0  0  0  0  0  0  0  0  0  0
   -0.5470   -0.4519   -7.1272 H   0  0  0  0  0  0  0  0  0  0  0  0
   -2.0114    3.0004   -4.9496 H   0  0  0  0  0  0  0  0  0  0  0  0
   -3.6151    1.5016   -3.6387 H   0  0  0  0  0  0  0  0  0  0  0  0
   -3.9354   -1.1344   -3.9397 N   0  0  0  0  0  0  0  0  0  0  0  0
   -4.6139   -0.5901   -3.0763 O   0  0  0  0  0  0  0  0  0  0  0  0
   -3.9667   -2.3234   -4.2273 O   0  0  0  0  0  0  0  0  0  0  0  0
   -0.2571    2.4042   -7.1487 N   0  0  0  0  0  0  0  0  0  0  0  0
    0.2048    3.1822   -7.7787 N   0  0  0  0  0  0  0  0  0  0  0  0
    1.8790    0.2699   -5.9551 S   0  0  0  0  0  0  0  0  0  0  0  0
    3.7558    0.5138   -6.0436 C   0  0  0  0  0  0  0  0  0  0  0  0
    1.3745    1.5308   -5.2871 O   0  0  0  0  0  0  0  0  0  0  0  0
    1.6768   -0.9861   -5.1763 O   0  0  0  0  0  0  0  0  0  0  0  0
    1.4568    0.1911   -7.4104 O   0  0  0  0  0  0  0  0  0  0  0  0
    4.0485    1.6330   -6.7330 F   0  0  0  0  0  0  0  0  0  0  0  0
    4.2680    0.6267   -4.8075 F   0  0  0  0  0  0  0  0  0  0  0  0
    4.3333   -0.5307   -6.6576 F   0  0  0  0  0  0  0  0  0  0  0  0
  1  6  2  0  0  0  0
  2  3  2  0  0  0  0
  2  1  1  0  0  0  0
  3  4  1  0  0  0  0
  4  9  1  0  0  0  0
  4  5  2  0  0  0  0
  5 10  1  0  0  0  0
  6  5  1  0  0  0  0
  6 11  1  0  0  0  0
  7  1  1  0  0  0  0
  8  2  1  0  0  0  0
 11 12  2  0  0  0  0
 13 11  2  0  0  0  0
 15 14  3  0  0  0  0
 16 18  2  0  0  0  0
 16 19  1  0  0  0  0
 17 16  1  0  0  0  0
 17 22  1  0  0  0  0
 20 16  2  0  0  0  0
 21 17  1  0  0  0  0
 23 17  1  0  0  0  0
M  RAD  2   3   2  19   2
M  END
