Coordinates from ORCA-job p-NO2-Ph-N2-OTf-B3LYPG-aug-cc-pVDZ-scan-d09-29-n200
 OpenBabel01151817083D

 23 22  0  0  0  0  0  0  0  0999 V2000
   -2.2159   -0.8821   -5.6715 C   0  0  0  0  0  0  0  0  0  0  0  0
   -1.3074   -0.1000   -6.4065 C   0  0  0  0  0  0  0  0  0  0  0  0
   -1.3779    1.2088   -6.0460 C   0  0  0  0  0  0  0  0  0  0  0  0
   -2.1053    1.9199   -5.1346 C   0  0  0  0  0  0  0  0  0  0  0  0
   -2.9923    1.0941   -4.4270 C   0  0  0  0  0  0  0  0  0  0  0  0
   -3.0306   -0.2729   -4.7152 C   0  0  0  0  0  0  0  0  0  0  0  0
   -2.2668   -1.9561   -5.8347 H   0  0  0  0  0  0  0  0  0  0  0  0
   -0.5730   -0.4880   -7.1148 H   0  0  0  0  0  0  0  0  0  0  0  0
   -2.0073    2.9853   -4.9524 H   0  0  0  0  0  0  0  0  0  0  0  0
   -3.6393    1.5107   -3.6586 H   0  0  0  0  0  0  0  0  0  0  0  0
   -3.9834   -1.1209   -3.9545 N   0  0  0  0  0  0  0  0  0  0  0  0
   -4.6697   -0.5662   -3.1041 O   0  0  0  0  0  0  0  0  0  0  0  0
   -4.0242   -2.3106   -4.2386 O   0  0  0  0  0  0  0  0  0  0  0  0
   -0.2362    2.3190   -7.0543 N   0  0  0  0  0  0  0  0  0  0  0  0
    0.1925    3.1103   -7.6923 N   0  0  0  0  0  0  0  0  0  0  0  0
    1.9211    0.2936   -5.9383 S   0  0  0  0  0  0  0  0  0  0  0  0
    3.7946    0.5378   -6.0828 C   0  0  0  0  0  0  0  0  0  0  0  0
    1.4387    1.5609   -5.2635 O   0  0  0  0  0  0  0  0  0  0  0  0
    1.7421   -0.9585   -5.1501 O   0  0  0  0  0  0  0  0  0  0  0  0
    1.4566    0.2150   -7.3808 O   0  0  0  0  0  0  0  0  0  0  0  0
    4.0660    1.6550   -6.7840 F   0  0  0  0  0  0  0  0  0  0  0  0
    4.3428    0.6544   -4.8629 F   0  0  0  0  0  0  0  0  0  0  0  0
    4.3541   -0.5084   -6.7106 F   0  0  0  0  0  0  0  0  0  0  0  0
  1  6  2  0  0  0  0
  2  3  2  0  0  0  0
  2  1  1  0  0  0  0
  3  4  1  0  0  0  0
  4  9  1  0  0  0  0
  4  5  2  0  0  0  0
  5 10  1  0  0  0  0
  6  5  1  0  0  0  0
  6 11  1  0  0  0  0
  7  1  1  0  0  0  0
  8  2  1  0  0  0  0
 11 12  2  0  0  0  0
 13 11  2  0  0  0  0
 14  3  1  0  0  0  0
 15 14  1  0  0  0  0
 16 18  2  0  0  0  0
 16 19  1  0  0  0  0
 17 16  1  0  0  0  0
 17 22  1  0  0  0  0
 20 16  2  0  0  0  0
 21 17  1  0  0  0  0
 23 17  1  0  0  0  0
M  RAD  3  14   2  15   3  19   2
M  END
