Coordinates from ORCA-job p-NO2-Ph-N2-OTf-B3LYPG-aug-cc-pVDZ-scan-d09-29-n200
 OpenBabel01151817083D

 23 23  0  0  1  0  0  0  0  0999 V2000
   -1.3817   -0.2218   -6.0087 C   0  0  0  0  0  0  0  0  0  0  0  0
   -0.5050    0.9828   -6.0445 C   0  0  1  0  0  0  0  0  0  0  0  0
   -1.1470    2.2711   -5.4130 C   0  0  0  0  0  0  0  0  0  0  0  0
   -2.2622    2.0165   -4.4457 C   0  0  0  0  0  0  0  0  0  0  0  0
   -2.8724    0.8211   -4.3414 C   0  0  0  0  0  0  0  0  0  0  0  0
   -2.4460   -0.2732   -5.1891 C   0  0  0  0  0  0  0  0  0  0  0  0
   -1.1183   -1.0735   -6.6314 H   0  0  0  0  0  0  0  0  0  0  0  0
   -0.1774    1.2359   -7.0593 H   0  0  0  0  0  0  0  0  0  0  0  0
   -2.5590    2.8760   -3.8448 H   0  0  0  0  0  0  0  0  0  0  0  0
   -3.6933    0.6603   -3.6483 H   0  0  0  0  0  0  0  0  0  0  0  0
   -3.2465   -1.5262   -5.1534 N   0  0  0  0  0  0  0  0  0  0  0  0
   -4.1832   -1.5624   -4.3617 O   0  0  0  0  0  0  0  0  0  0  0  0
   -2.9244   -2.4380   -5.9058 O   0  0  0  0  0  0  0  0  0  0  0  0
   -0.8051    3.1211   -5.6241 N   0  0  0  0  0  0  0  0  0  0  0  0
   -0.3686    4.1815   -5.8876 N   0  0  0  0  0  0  0  0  0  0  0  0
    2.2101    0.8151   -5.9413 S   0  0  0  0  0  0  0  0  0  0  0  0
    2.5487   -1.0305   -6.2602 C   0  0  0  0  0  0  0  0  0  0  0  0
    2.0996    1.4695   -7.2586 O   0  0  0  0  0  0  0  0  0  0  0  0
    3.1273    1.2517   -4.8845 O   0  0  0  0  0  0  0  0  0  0  0  0
    0.7036    0.6791   -5.2458 O   0  0  0  0  0  0  0  0  0  0  0  0
    1.6050   -1.5125   -7.0809 F   0  0  0  0  0  0  0  0  0  0  0  0
    3.7445   -1.1420   -6.8370 F   0  0  0  0  0  0  0  0  0  0  0  0
    2.5307   -1.7004   -5.1107 F   0  0  0  0  0  0  0  0  0  0  0  0
  1  6  2  0  0  0  0
  2  8  1  6  0  0  0
  2  1  1  0  0  0  0
  2  3  1  0  0  0  0
  2 20  1  0  0  0  0
  3  4  2  0  0  0  0
  4  5  1  0  0  0  0
  4  9  1  0  0  0  0
  5 10  1  0  0  0  0
  6 11  1  0  0  0  0
  6  5  1  0  0  0  0
  7  1  1  0  0  0  0
 11 12  2  0  0  0  0
 13 11  2  0  0  0  0
 14  3  1  0  0  0  0
 15 14  1  0  0  0  0
 16 20  1  0  0  0  0
 16 19  2  0  0  0  0
 17 16  1  0  0  0  0
 17 23  1  0  0  0  0
 18 16  2  0  0  0  0
 21 17  1  0  0  0  0
 22 17  1  0  0  0  0
M  RAD  3   5   2  14   2  15   3
M  END
