Coordinates from ORCA-job p-NO2-Ph-N2-OTf-B3LYPG-aug-cc-pVDZ-scan-d29-49-n200
 OpenBabel01151817083D

 23 22  0  0  1  0  0  0  0  0999 V2000
   -1.2886   -0.4365   -5.6762 C   0  0  0  0  0  0  0  0  0  0  0  0
   -0.4403    0.7528   -5.3613 C   0  0  1  0  0  0  0  0  0  0  0  0
   -0.9973    1.7457   -4.4741 C   0  0  0  0  0  0  0  0  0  0  0  0
   -2.3711    1.8500   -4.3018 C   0  0  0  0  0  0  0  0  0  0  0  0
   -3.0644    0.6383   -4.3628 C   0  0  0  0  0  0  0  0  0  0  0  0
   -2.5234   -0.4558   -5.1138 C   0  0  0  0  0  0  0  0  0  0  0  0
   -0.9911   -1.1653   -6.4271 H   0  0  0  0  0  0  0  0  0  0  0  0
   -0.2703    1.3043   -6.3192 H   0  0  0  0  0  0  0  0  0  0  0  0
   -2.8320    2.7294   -3.8491 H   0  0  0  0  0  0  0  0  0  0  0  0
   -3.9982    0.4839   -3.8234 H   0  0  0  0  0  0  0  0  0  0  0  0
   -3.4027   -1.6289   -5.3541 N   0  0  0  0  0  0  0  0  0  0  0  0
   -4.4228   -1.7076   -4.6773 O   0  0  0  0  0  0  0  0  0  0  0  0
   -3.0511   -2.4405   -6.2006 O   0  0  0  0  0  0  0  0  0  0  0  0
   -0.5530    4.5627   -6.8062 N   0  0  0  0  0  0  0  0  0  0  0  0
   -0.0500    5.5446   -6.7642 N   0  0  0  0  0  0  0  0  0  0  0  0
    2.2267    0.6826   -5.7801 S   0  0  0  0  0  0  0  0  0  0  0  0
    2.6478   -1.0552   -6.4264 C   0  0  0  0  0  0  0  0  0  0  0  0
    1.8254    1.4877   -6.9551 O   0  0  0  0  0  0  0  0  0  0  0  0
    3.3059    1.0719   -4.8666 O   0  0  0  0  0  0  0  0  0  0  0  0
    0.8975    0.3003   -4.8840 O   0  0  0  0  0  0  0  0  0  0  0  0
    1.6191   -1.5177   -7.1526 F   0  0  0  0  0  0  0  0  0  0  0  0
    3.7330   -0.9677   -7.1966 F   0  0  0  0  0  0  0  0  0  0  0  0
    2.8800   -1.8779   -5.4050 F   0  0  0  0  0  0  0  0  0  0  0  0
  1  2  1  0  0  0  0
  1  6  2  0  0  0  0
  2  8  1  6  0  0  0
  2 20  1  0  0  0  0
  2  3  1  0  0  0  0
  3  4  1  0  0  0  0
  4  9  1  0  0  0  0
  5  4  1  0  0  0  0
  5 10  1  0  0  0  0
  6  5  1  0  0  0  0
  7  1  1  0  0  0  0
 11  6  1  0  0  0  0
 11 12  2  0  0  0  0
 13 11  2  0  0  0  0
 14 15  3  0  0  0  0
 16 20  1  0  0  0  0
 16 19  2  0  0  0  0
 17 16  1  0  0  0  0
 17 23  1  0  0  0  0
 18 16  2  0  0  0  0
 21 17  1  0  0  0  0
 22 17  1  0  0  0  0
M  RAD  3   3   3   4   2   5   2
M  END
