Coordinates from ORCA-job p-NO2-Ph-N2-OTf-B3LYPG-aug-cc-pVDZ-scan-d29-49-n200
 OpenBabel01151817083D

 23 22  0  0  1  0  0  0  0  0999 V2000
   -1.3057   -0.2404   -5.6391 C   0  0  0  0  0  0  0  0  0  0  0  0
   -0.4122    0.7734   -5.0001 C   0  0  1  0  0  0  0  0  0  0  0  0
   -0.9330    1.4982   -3.8636 C   0  0  0  0  0  0  0  0  0  0  0  0
   -2.3059    1.6039   -3.6699 C   0  0  0  0  0  0  0  0  0  0  0  0
   -3.0528    0.4967   -4.0790 C   0  0  0  0  0  0  0  0  0  0  0  0
   -2.5489   -0.3624   -5.1096 C   0  0  0  0  0  0  0  0  0  0  0  0
   -1.0269   -0.7415   -6.5636 H   0  0  0  0  0  0  0  0  0  0  0  0
   -0.2109    1.5604   -5.7691 H   0  0  0  0  0  0  0  0  0  0  0  0
   -2.7363    2.3316   -2.9798 H   0  0  0  0  0  0  0  0  0  0  0  0
   -4.0029    0.2413   -3.6114 H   0  0  0  0  0  0  0  0  0  0  0  0
   -3.4739   -1.3774   -5.6762 N   0  0  0  0  0  0  0  0  0  0  0  0
   -4.5088   -1.5955   -5.0547 O   0  0  0  0  0  0  0  0  0  0  0  0
   -3.1421   -1.9335   -6.7152 O   0  0  0  0  0  0  0  0  0  0  0  0
   -0.4478    3.8418   -7.9657 N   0  0  0  0  0  0  0  0  0  0  0  0
   -0.0457    4.6063   -8.6531 N   0  0  0  0  0  0  0  0  0  0  0  0
    2.2559    0.6980   -5.4230 S   0  0  0  0  0  0  0  0  0  0  0  0
    2.5980   -0.7988   -6.5442 C   0  0  0  0  0  0  0  0  0  0  0  0
    1.9117    1.8266   -6.3151 O   0  0  0  0  0  0  0  0  0  0  0  0
    3.3408    0.7490   -4.4378 O   0  0  0  0  0  0  0  0  0  0  0  0
    0.8983    0.1435   -4.6727 O   0  0  0  0  0  0  0  0  0  0  0  0
    1.5572   -0.9779   -7.3718 F   0  0  0  0  0  0  0  0  0  0  0  0
    3.6965   -0.5494   -7.2582 F   0  0  0  0  0  0  0  0  0  0  0  0
    2.7746   -1.8926   -5.8050 F   0  0  0  0  0  0  0  0  0  0  0  0
  1  6  2  0  0  0  0
  1  2  1  0  0  0  0
  2  8  1  6  0  0  0
  2 20  1  0  0  0  0
  2  3  1  0  0  0  0
  3  4  1  0  0  0  0
  4  9  1  0  0  0  0
  5  4  1  0  0  0  0
  5 10  1  0  0  0  0
  6  5  1  0  0  0  0
  7  1  1  0  0  0  0
 11  6  1  0  0  0  0
 11 12  2  0  0  0  0
 13 11  2  0  0  0  0
 15 14  3  0  0  0  0
 16 20  1  0  0  0  0
 16 19  2  0  0  0  0
 17 23  1  0  0  0  0
 17 16  1  0  0  0  0
 18 16  2  0  0  0  0
 21 17  1  0  0  0  0
 22 17  1  0  0  0  0
M  RAD  3   3   3   4   2   5   2
M  END
