Coordinates from ORCA-job p-NO2-Ph-N2-OTf-B3LYPG-aug-cc-pVDZ-scan-d09-29-n200
 OpenBabel01151817083D

 23 22  0  0  0  0  0  0  0  0999 V2000
   -2.0850   -0.6532   -6.0602 C   0  0  0  0  0  0  0  0  0  0  0  0
   -1.1250    0.2402   -6.5451 C   0  0  0  0  0  0  0  0  0  0  0  0
   -1.1187    1.4784   -5.9323 C   0  0  0  0  0  0  0  0  0  0  0  0
   -1.8974    1.9189   -4.8727 C   0  0  0  0  0  0  0  0  0  0  0  0
   -2.8359    1.0019   -4.4047 C   0  0  0  0  0  0  0  0  0  0  0  0
   -2.9134   -0.2552   -5.0136 C   0  0  0  0  0  0  0  0  0  0  0  0
   -2.1699   -1.6548   -6.4725 H   0  0  0  0  0  0  0  0  0  0  0  0
   -0.4247   -0.0293   -7.3285 H   0  0  0  0  0  0  0  0  0  0  0  0
   -1.7775    2.9036   -4.4298 H   0  0  0  0  0  0  0  0  0  0  0  0
   -3.4981    1.2473   -3.5788 H   0  0  0  0  0  0  0  0  0  0  0  0
   -3.9279   -1.2171   -4.5098 N   0  0  0  0  0  0  0  0  0  0  0  0
   -4.6228   -0.8550   -3.5673 O   0  0  0  0  0  0  0  0  0  0  0  0
   -4.0101   -2.2971   -5.0803 O   0  0  0  0  0  0  0  0  0  0  0  0
   -0.0691    2.5362   -6.4968 N   0  0  0  0  0  0  0  0  0  0  0  0
    0.4409    3.3757   -7.0093 N   0  0  0  0  0  0  0  0  0  0  0  0
    2.1179    0.2641   -4.9899 S   0  0  0  0  0  0  0  0  0  0  0  0
    3.0970    0.2443   -6.6149 C   0  0  0  0  0  0  0  0  0  0  0  0
    1.5345    1.6757   -5.0146 O   0  0  0  0  0  0  0  0  0  0  0  0
    3.1219    0.0335   -3.9256 O   0  0  0  0  0  0  0  0  0  0  0  0
    1.0808   -0.7973   -5.2140 O   0  0  0  0  0  0  0  0  0  0  0  0
    2.2516    0.5210   -7.6546 F   0  0  0  0  0  0  0  0  0  0  0  0
    4.0632    1.1742   -6.6203 F   0  0  0  0  0  0  0  0  0  0  0  0
    3.6468   -0.9548   -6.8424 F   0  0  0  0  0  0  0  0  0  0  0  0
  1  6  1  0  0  0  0
  2  1  2  0  0  0  0
  2  3  1  0  0  0  0
  3  4  2  0  0  0  0
  4  9  1  0  0  0  0
  4  5  1  0  0  0  0
  5 10  1  0  0  0  0
  6 11  1  0  0  0  0
  6  5  2  0  0  0  0
  7  1  1  0  0  0  0
  8  2  1  0  0  0  0
 11 12  2  0  0  0  0
 13 11  2  0  0  0  0
 14  3  1  0  0  0  0
 15 14  1  0  0  0  0
 16 19  1  0  0  0  0
 17 16  1  0  0  0  0
 18 16  2  0  0  0  0
 20 16  2  0  0  0  0
 21 17  1  0  0  0  0
 22 17  1  0  0  0  0
 23 17  1  0  0  0  0
M  RAD  3  14   2  15   3  19   2
M  END
