Coordinates from ORCA-job p-NO2-Ph-N2-OTf-B3LYPG-aug-cc-pVDZ-scan-d29-49-n200
 OpenBabel01151817083D

 23 22  0  0  1  0  0  0  0  0999 V2000
   -1.2813   -0.4448   -5.6899 C   0  0  0  0  0  0  0  0  0  0  0  0
   -0.4410    0.7692   -5.4581 C   0  0  1  0  0  0  0  0  0  0  0  0
   -1.0069    1.8153   -4.6387 C   0  0  0  0  0  0  0  0  0  0  0  0
   -2.3799    1.9181   -4.4628 C   0  0  0  0  0  0  0  0  0  0  0  0
   -3.0584    0.6968   -4.4343 C   0  0  0  0  0  0  0  0  0  0  0  0
   -2.5116   -0.4386   -5.1172 C   0  0  0  0  0  0  0  0  0  0  0  0
   -0.9835   -1.2166   -6.3962 H   0  0  0  0  0  0  0  0  0  0  0  0
   -0.2683    1.2528   -6.4499 H   0  0  0  0  0  0  0  0  0  0  0  0
   -2.8475    2.8207   -4.0661 H   0  0  0  0  0  0  0  0  0  0  0  0
   -3.9836    0.5678   -3.8741 H   0  0  0  0  0  0  0  0  0  0  0  0
   -3.3816   -1.6324   -5.2745 N   0  0  0  0  0  0  0  0  0  0  0  0
   -4.3988   -1.6738   -4.5900 O   0  0  0  0  0  0  0  0  0  0  0  0
   -3.0331   -2.4899   -6.0758 O   0  0  0  0  0  0  0  0  0  0  0  0
   -0.6095    4.4308   -6.4772 N   0  0  0  0  0  0  0  0  0  0  0  0
   -0.1286    5.4127   -6.3223 N   0  0  0  0  0  0  0  0  0  0  0  0
    2.2309    0.6947   -5.8499 S   0  0  0  0  0  0  0  0  0  0  0  0
    2.6578   -1.0723   -6.4072 C   0  0  0  0  0  0  0  0  0  0  0  0
    1.8365    1.4402   -7.0655 O   0  0  0  0  0  0  0  0  0  0  0  0
    3.3041    1.1295   -4.9499 O   0  0  0  0  0  0  0  0  0  0  0  0
    0.8974    0.3572   -4.9432 O   0  0  0  0  0  0  0  0  0  0  0  0
    1.6328   -1.5721   -7.1138 F   0  0  0  0  0  0  0  0  0  0  0  0
    3.7462   -1.0214   -7.1762 F   0  0  0  0  0  0  0  0  0  0  0  0
    2.8867   -1.8429   -5.3452 F   0  0  0  0  0  0  0  0  0  0  0  0
  1  2  1  0  0  0  0
  1  6  2  0  0  0  0
  2  8  1  6  0  0  0
  2 20  1  0  0  0  0
  2  3  1  0  0  0  0
  3  4  1  0  0  0  0
  4  5  1  0  0  0  0
  4  9  1  0  0  0  0
  5 10  1  0  0  0  0
  6  5  1  0  0  0  0
  7  1  1  0  0  0  0
 11  6  1  0  0  0  0
 11 12  2  0  0  0  0
 13 11  2  0  0  0  0
 14 15  3  0  0  0  0
 16 19  2  0  0  0  0
 16 20  1  0  0  0  0
 17 16  1  0  0  0  0
 17 23  1  0  0  0  0
 18 16  2  0  0  0  0
 21 17  1  0  0  0  0
 22 17  1  0  0  0  0
M  RAD  3   3   3   4   2   5   2
M  END
