Coordinates from ORCA-job p-NO2-Ph-N2-OTf-B3LYPG-aug-cc-pVDZ-scan-d29-49-n200
 OpenBabel01151817083D

 23 22  0  0  1  0  0  0  0  0999 V2000
   -1.3088   -0.2448   -5.6339 C   0  0  0  0  0  0  0  0  0  0  0  0
   -0.4161    0.7690   -4.9936 C   0  0  1  0  0  0  0  0  0  0  0  0
   -0.9363    1.4902   -3.8543 C   0  0  0  0  0  0  0  0  0  0  0  0
   -2.3093    1.5929   -3.6586 C   0  0  0  0  0  0  0  0  0  0  0  0
   -3.0550    0.4857   -4.0697 C   0  0  0  0  0  0  0  0  0  0  0  0
   -2.5510   -0.3701   -5.1030 C   0  0  0  0  0  0  0  0  0  0  0  0
   -1.0302   -0.7434   -6.5597 H   0  0  0  0  0  0  0  0  0  0  0  0
   -0.2173    1.5581   -5.7612 H   0  0  0  0  0  0  0  0  0  0  0  0
   -2.7400    2.3180   -2.9660 H   0  0  0  0  0  0  0  0  0  0  0  0
   -4.0042    0.2276   -3.6016 H   0  0  0  0  0  0  0  0  0  0  0  0
   -3.4750   -1.3853   -5.6708 N   0  0  0  0  0  0  0  0  0  0  0  0
   -4.5087   -1.6066   -5.0486 O   0  0  0  0  0  0  0  0  0  0  0  0
   -3.1435   -1.9384   -6.7116 O   0  0  0  0  0  0  0  0  0  0  0  0
   -0.4245    3.8978   -8.0213 N   0  0  0  0  0  0  0  0  0  0  0  0
   -0.0019    4.6571   -8.7022 N   0  0  0  0  0  0  0  0  0  0  0  0
    2.2511    0.6979   -5.4232 S   0  0  0  0  0  0  0  0  0  0  0  0
    2.5946   -0.7998   -6.5428 C   0  0  0  0  0  0  0  0  0  0  0  0
    1.9030    1.8245   -6.3164 O   0  0  0  0  0  0  0  0  0  0  0  0
    3.3375    0.7529   -4.4399 O   0  0  0  0  0  0  0  0  0  0  0  0
    0.8960    0.1412   -4.6699 O   0  0  0  0  0  0  0  0  0  0  0  0
    1.5529   -0.9822   -7.3685 F   0  0  0  0  0  0  0  0  0  0  0  0
    3.6915   -0.5491   -7.2588 F   0  0  0  0  0  0  0  0  0  0  0  0
    2.7745   -1.8922   -5.8023 F   0  0  0  0  0  0  0  0  0  0  0  0
  1  6  2  0  0  0  0
  1  2  1  0  0  0  0
  2  8  1  6  0  0  0
  2 20  1  0  0  0  0
  2  3  1  0  0  0  0
  3  4  1  0  0  0  0
  4  9  1  0  0  0  0
  5  4  1  0  0  0  0
  5 10  1  0  0  0  0
  6  5  1  0  0  0  0
  7  1  1  0  0  0  0
 11  6  1  0  0  0  0
 11 12  2  0  0  0  0
 13 11  2  0  0  0  0
 15 14  3  0  0  0  0
 16 20  1  0  0  0  0
 16 19  2  0  0  0  0
 17 23  1  0  0  0  0
 17 16  1  0  0  0  0
 18 16  2  0  0  0  0
 21 17  1  0  0  0  0
 22 17  1  0  0  0  0
M  RAD  3   3   3   4   2   5   2
M  END
