Coordinates from ORCA-job p-NO2-Ph-N2-OTf-B3LYPG-aug-cc-pVDZ-scan-d09-29-n200
 OpenBabel01151817083D

 23 22  0  0  0  0  0  0  0  0999 V2000
   -2.2171   -0.8820   -5.6734 C   0  0  0  0  0  0  0  0  0  0  0  0
   -1.3081   -0.1009   -6.4085 C   0  0  0  0  0  0  0  0  0  0  0  0
   -1.3759    1.2087   -6.0484 C   0  0  0  0  0  0  0  0  0  0  0  0
   -2.1027    1.9195   -5.1359 C   0  0  0  0  0  0  0  0  0  0  0  0
   -2.9903    1.0948   -4.4280 C   0  0  0  0  0  0  0  0  0  0  0  0
   -3.0305   -0.2720   -4.7165 C   0  0  0  0  0  0  0  0  0  0  0  0
   -2.2696   -1.9558   -5.8369 H   0  0  0  0  0  0  0  0  0  0  0  0
   -0.5752   -0.4898   -7.1173 H   0  0  0  0  0  0  0  0  0  0  0  0
   -2.0034    2.9847   -4.9532 H   0  0  0  0  0  0  0  0  0  0  0  0
   -3.6364    1.5119   -3.6592 H   0  0  0  0  0  0  0  0  0  0  0  0
   -3.9841   -1.1191   -3.9556 N   0  0  0  0  0  0  0  0  0  0  0  0
   -4.6671   -0.5643   -3.1025 O   0  0  0  0  0  0  0  0  0  0  0  0
   -4.0242   -2.3092   -4.2377 O   0  0  0  0  0  0  0  0  0  0  0  0
   -0.2398    2.3140   -7.0499 N   0  0  0  0  0  0  0  0  0  0  0  0
    0.1870    3.1062   -7.6879 N   0  0  0  0  0  0  0  0  0  0  0  0
    1.9214    0.2930   -5.9374 S   0  0  0  0  0  0  0  0  0  0  0  0
    3.7946    0.5394   -6.0822 C   0  0  0  0  0  0  0  0  0  0  0  0
    1.4375    1.5592   -5.2615 O   0  0  0  0  0  0  0  0  0  0  0  0
    1.7439   -0.9598   -5.1500 O   0  0  0  0  0  0  0  0  0  0  0  0
    1.4567    0.2150   -7.3799 O   0  0  0  0  0  0  0  0  0  0  0  0
    4.0646    1.6572   -6.7830 F   0  0  0  0  0  0  0  0  0  0  0  0
    4.3429    0.6561   -4.8624 F   0  0  0  0  0  0  0  0  0  0  0  0
    4.3550   -0.5059   -6.7106 F   0  0  0  0  0  0  0  0  0  0  0  0
  1  6  2  0  0  0  0
  2  3  2  0  0  0  0
  2  1  1  0  0  0  0
  3  4  1  0  0  0  0
  4  9  1  0  0  0  0
  4  5  2  0  0  0  0
  5 10  1  0  0  0  0
  6  5  1  0  0  0  0
  6 11  1  0  0  0  0
  7  1  1  0  0  0  0
  8  2  1  0  0  0  0
 11 12  2  0  0  0  0
 13 11  2  0  0  0  0
 14  3  1  0  0  0  0
 15 14  1  0  0  0  0
 16 18  2  0  0  0  0
 16 19  1  0  0  0  0
 17 16  1  0  0  0  0
 17 22  1  0  0  0  0
 20 16  2  0  0  0  0
 21 17  1  0  0  0  0
 23 17  1  0  0  0  0
M  RAD  3  14   2  15   3  19   2
M  END
