Coordinates from ORCA-job p-NO2-Ph-N2-OTf-B3LYPG-aug-cc-pVDZ-scan-d09-29-n200
 OpenBabel01151817083D

 23 22  0  0  0  0  0  0  0  0999 V2000
   -2.3884   -0.6886   -6.1650 C   0  0  0  0  0  0  0  0  0  0  0  0
   -1.0847   -0.3247   -6.4973 C   0  0  0  0  0  0  0  0  0  0  0  0
   -0.3879    0.5397   -5.6511 C   0  0  0  0  0  0  0  0  0  0  0  0
   -0.9358    1.0126   -4.4574 C   0  0  0  0  0  0  0  0  0  0  0  0
   -2.2393    0.6500   -4.1232 C   0  0  0  0  0  0  0  0  0  0  0  0
   -2.9462   -0.1896   -4.9863 C   0  0  0  0  0  0  0  0  0  0  0  0
   -2.9718   -1.3501   -6.8000 H   0  0  0  0  0  0  0  0  0  0  0  0
   -0.6118   -0.6930   -7.4050 H   0  0  0  0  0  0  0  0  0  0  0  0
   -0.3495    1.6628   -3.8118 H   0  0  0  0  0  0  0  0  0  0  0  0
   -2.7097    1.0038   -3.2095 H   0  0  0  0  0  0  0  0  0  0  0  0
   -4.3296   -0.5719   -4.6346 N   0  0  0  0  0  0  0  0  0  0  0  0
   -4.7962   -0.1236   -3.5911 O   0  0  0  0  0  0  0  0  0  0  0  0
   -4.9288   -1.3143   -5.4076 O   0  0  0  0  0  0  0  0  0  0  0  0
   -0.9885    2.6651   -7.0008 N   0  0  0  0  0  0  0  0  0  0  0  0
   -1.9231    3.1873   -7.2737 N   0  0  0  0  0  0  0  0  0  0  0  0
    2.1636   -0.0461   -5.4505 S   0  0  0  0  0  0  0  0  0  0  0  0
    3.5079    1.0334   -6.2640 C   0  0  0  0  0  0  0  0  0  0  0  0
    0.9121    0.9315   -6.0031 O   0  0  0  0  0  0  0  0  0  0  0  0
    2.2874    0.0666   -3.9880 O   0  0  0  0  0  0  0  0  0  0  0  0
    2.1274   -1.3503   -6.1322 O   0  0  0  0  0  0  0  0  0  0  0  0
    3.3272    1.0640   -7.5827 F   0  0  0  0  0  0  0  0  0  0  0  0
    3.4619    2.2667   -5.7646 F   0  0  0  0  0  0  0  0  0  0  0  0
    4.6831    0.4697   -5.9782 F   0  0  0  0  0  0  0  0  0  0  0  0
  1  6  1  0  0  0  0
  2  1  2  0  0  0  0
  2  3  1  0  0  0  0
  3  4  2  0  0  0  0
  4  5  1  0  0  0  0
  4  9  1  0  0  0  0
  5 10  1  0  0  0  0
  6 11  1  0  0  0  0
  6  5  2  0  0  0  0
  7  1  1  0  0  0  0
  8  2  1  0  0  0  0
 11 12  2  0  0  0  0
 13 11  2  0  0  0  0
 15 14  3  0  0  0  0
 16 19  2  0  0  0  0
 17 23  1  0  0  0  0
 17 22  1  0  0  0  0
 17 16  1  0  0  0  0
 18  3  1  0  0  0  0
 18 16  1  0  0  0  0
 20 16  2  0  0  0  0
 21 17  1  0  0  0  0
M  END
