Coordinates from ORCA-job p-NO2-Ph-N2-OTf-B3LYPG-aug-cc-pVDZ-scan-d29-49-n200
 OpenBabel01151817083D

 23 22  0  0  1  0  0  0  0  0999 V2000
   -1.2822   -0.4469   -5.6831 C   0  0  0  0  0  0  0  0  0  0  0  0
   -0.4404    0.7624   -5.4328 C   0  0  1  0  0  0  0  0  0  0  0  0
   -1.0030    1.7983   -4.5983 C   0  0  0  0  0  0  0  0  0  0  0  0
   -2.3771    1.9005   -4.4249 C   0  0  0  0  0  0  0  0  0  0  0  0
   -3.0603    0.6818   -4.4179 C   0  0  0  0  0  0  0  0  0  0  0  0
   -2.5144   -0.4457   -5.1147 C   0  0  0  0  0  0  0  0  0  0  0  0
   -0.9831   -1.2107   -6.3977 H   0  0  0  0  0  0  0  0  0  0  0  0
   -0.2703    1.2614   -6.4180 H   0  0  0  0  0  0  0  0  0  0  0  0
   -2.8437    2.7982   -4.0158 H   0  0  0  0  0  0  0  0  0  0  0  0
   -3.9894    0.5481   -3.8651 H   0  0  0  0  0  0  0  0  0  0  0  0
   -3.3866   -1.6353   -5.2908 N   0  0  0  0  0  0  0  0  0  0  0  0
   -4.4090   -1.6807   -4.6143 O   0  0  0  0  0  0  0  0  0  0  0  0
   -3.0397   -2.4805   -6.1057 O   0  0  0  0  0  0  0  0  0  0  0  0
   -0.5954    4.4831   -6.5639 N   0  0  0  0  0  0  0  0  0  0  0  0
   -0.1096    5.4650   -6.4231 N   0  0  0  0  0  0  0  0  0  0  0  0
    2.2298    0.6904   -5.8343 S   0  0  0  0  0  0  0  0  0  0  0  0
    2.6566   -1.0700   -6.4122 C   0  0  0  0  0  0  0  0  0  0  0  0
    1.8315    1.4491   -7.0404 O   0  0  0  0  0  0  0  0  0  0  0  0
    3.3047    1.1161   -4.9321 O   0  0  0  0  0  0  0  0  0  0  0  0
    0.8984    0.3410   -4.9286 O   0  0  0  0  0  0  0  0  0  0  0  0
    1.6305   -1.5627   -7.1221 F   0  0  0  0  0  0  0  0  0  0  0  0
    3.7433   -1.0097   -7.1829 F   0  0  0  0  0  0  0  0  0  0  0  0
    2.8885   -1.8522   -5.3593 F   0  0  0  0  0  0  0  0  0  0  0  0
  1  2  1  0  0  0  0
  1  6  2  0  0  0  0
  2  8  1  6  0  0  0
  2 20  1  0  0  0  0
  2  3  1  0  0  0  0
  3  4  1  0  0  0  0
  4  5  1  0  0  0  0
  4  9  1  0  0  0  0
  5 10  1  0  0  0  0
  6  5  1  0  0  0  0
  7  1  1  0  0  0  0
 11  6  1  0  0  0  0
 11 12  2  0  0  0  0
 13 11  2  0  0  0  0
 14 15  3  0  0  0  0
 16 19  2  0  0  0  0
 16 20  1  0  0  0  0
 17 16  1  0  0  0  0
 17 23  1  0  0  0  0
 18 16  2  0  0  0  0
 21 17  1  0  0  0  0
 22 17  1  0  0  0  0
M  RAD  3   3   3   4   2   5   2
M  END
