Coordinates from ORCA-job p-NO2-Ph-N2-OTf-B3LYPG-aug-cc-pVDZ-scan-d09-29-n200
 OpenBabel01151817083D

 23 22  0  0  0  0  0  0  0  0999 V2000
   -2.3774   -0.6618   -6.1809 C   0  0  0  0  0  0  0  0  0  0  0  0
   -1.0896   -0.2671   -6.5330 C   0  0  0  0  0  0  0  0  0  0  0  0
   -0.4143    0.6505   -5.7222 C   0  0  0  0  0  0  0  0  0  0  0  0
   -0.9414    1.0748   -4.4984 C   0  0  0  0  0  0  0  0  0  0  0  0
   -2.2290    0.6824   -4.1435 C   0  0  0  0  0  0  0  0  0  0  0  0
   -2.9341   -0.1669   -4.9993 C   0  0  0  0  0  0  0  0  0  0  0  0
   -2.9478   -1.3509   -6.7982 H   0  0  0  0  0  0  0  0  0  0  0  0
   -0.6168   -0.6362   -7.4405 H   0  0  0  0  0  0  0  0  0  0  0  0
   -0.3551    1.7279   -3.8557 H   0  0  0  0  0  0  0  0  0  0  0  0
   -2.6867    1.0130   -3.2148 H   0  0  0  0  0  0  0  0  0  0  0  0
   -4.3010   -0.5824   -4.6257 N   0  0  0  0  0  0  0  0  0  0  0  0
   -4.7613   -0.1454   -3.5744 O   0  0  0  0  0  0  0  0  0  0  0  0
   -4.8932   -1.3421   -5.3873 O   0  0  0  0  0  0  0  0  0  0  0  0
   -0.9462    2.4726   -6.8863 N   0  0  0  0  0  0  0  0  0  0  0  0
   -1.9056    2.9626   -7.1397 N   0  0  0  0  0  0  0  0  0  0  0  0
    2.1082   -0.0229   -5.4725 S   0  0  0  0  0  0  0  0  0  0  0  0
    3.5073    1.0164   -6.2450 C   0  0  0  0  0  0  0  0  0  0  0  0
    0.9072    1.0009   -6.0487 O   0  0  0  0  0  0  0  0  0  0  0  0
    2.2017    0.0756   -4.0069 O   0  0  0  0  0  0  0  0  0  0  0  0
    2.0474   -1.3202   -6.1653 O   0  0  0  0  0  0  0  0  0  0  0  0
    3.3602    1.0629   -7.5674 F   0  0  0  0  0  0  0  0  0  0  0  0
    3.4914    2.2469   -5.7368 F   0  0  0  0  0  0  0  0  0  0  0  0
    4.6552    0.4105   -5.9354 F   0  0  0  0  0  0  0  0  0  0  0  0
  1  6  1  0  0  0  0
  2  1  2  0  0  0  0
  2  3  1  0  0  0  0
  3  4  2  0  0  0  0
  4  5  1  0  0  0  0
  4  9  1  0  0  0  0
  5 10  1  0  0  0  0
  6 11  1  0  0  0  0
  6  5  2  0  0  0  0
  7  1  1  0  0  0  0
  8  2  1  0  0  0  0
 11 12  2  0  0  0  0
 13 11  2  0  0  0  0
 15 14  3  0  0  0  0
 16 19  2  0  0  0  0
 17 23  1  0  0  0  0
 17 22  1  0  0  0  0
 17 16  1  0  0  0  0
 18  3  1  0  0  0  0
 18 16  1  0  0  0  0
 20 16  2  0  0  0  0
 21 17  1  0  0  0  0
M  END
