Coordinates from ORCA-job p-NO2-Ph-N2-OTf-B3LYPG-aug-cc-pVDZ-scan-d29-49-n200
 OpenBabel01151817083D

 23 22  0  0  1  0  0  0  0  0999 V2000
   -1.2826   -0.4449   -5.6886 C   0  0  0  0  0  0  0  0  0  0  0  0
   -0.4413    0.7669   -5.4488 C   0  0  1  0  0  0  0  0  0  0  0  0
   -1.0057    1.8090   -4.6235 C   0  0  0  0  0  0  0  0  0  0  0  0
   -2.3793    1.9122   -4.4495 C   0  0  0  0  0  0  0  0  0  0  0  0
   -3.0603    0.6923   -4.4303 C   0  0  0  0  0  0  0  0  0  0  0  0
   -2.5140   -0.4401   -5.1186 C   0  0  0  0  0  0  0  0  0  0  0  0
   -0.9840   -1.2136   -6.3981 H   0  0  0  0  0  0  0  0  0  0  0  0
   -0.2692    1.2571   -6.4378 H   0  0  0  0  0  0  0  0  0  0  0  0
   -2.8462    2.8130   -4.0479 H   0  0  0  0  0  0  0  0  0  0  0  0
   -3.9877    0.5618   -3.8739 H   0  0  0  0  0  0  0  0  0  0  0  0
   -3.3855   -1.6317   -5.2844 N   0  0  0  0  0  0  0  0  0  0  0  0
   -4.3975   -1.6816   -4.5929 O   0  0  0  0  0  0  0  0  0  0  0  0
   -3.0295   -2.4917   -6.0799 O   0  0  0  0  0  0  0  0  0  0  0  0
   -0.6023    4.4527   -6.5085 N   0  0  0  0  0  0  0  0  0  0  0  0
   -0.1190    5.4342   -6.3581 N   0  0  0  0  0  0  0  0  0  0  0  0
    2.2300    0.6926   -5.8436 S   0  0  0  0  0  0  0  0  0  0  0  0
    2.6564   -1.0717   -6.4095 C   0  0  0  0  0  0  0  0  0  0  0  0
    1.8347    1.4439   -7.0554 O   0  0  0  0  0  0  0  0  0  0  0  0
    3.3037    1.1231   -4.9423 O   0  0  0  0  0  0  0  0  0  0  0  0
    0.8969    0.3505   -4.9379 O   0  0  0  0  0  0  0  0  0  0  0  0
    1.6311   -1.5682   -7.1180 F   0  0  0  0  0  0  0  0  0  0  0  0
    3.7444   -1.0173   -7.1789 F   0  0  0  0  0  0  0  0  0  0  0  0
    2.8859   -1.8474   -5.3514 F   0  0  0  0  0  0  0  0  0  0  0  0
  1  2  1  0  0  0  0
  1  6  2  0  0  0  0
  2  8  1  6  0  0  0
  2 20  1  0  0  0  0
  2  3  1  0  0  0  0
  3  4  1  0  0  0  0
  4  5  1  0  0  0  0
  4  9  1  0  0  0  0
  5 10  1  0  0  0  0
  6  5  1  0  0  0  0
  7  1  1  0  0  0  0
 11  6  1  0  0  0  0
 11 12  2  0  0  0  0
 13 11  2  0  0  0  0
 14 15  3  0  0  0  0
 16 19  2  0  0  0  0
 16 20  1  0  0  0  0
 17 16  1  0  0  0  0
 17 23  1  0  0  0  0
 18 16  2  0  0  0  0
 21 17  1  0  0  0  0
 22 17  1  0  0  0  0
M  RAD  3   3   3   4   2   5   2
M  END
