Coordinates from ORCA-job p-NO2-Ph-N2-OTf-B3LYPG-aug-cc-pVDZ-scan-d09-29-n200
 OpenBabel01151817083D

 23 22  0  0  0  0  0  0  0  0999 V2000
   -2.3847   -0.6742   -6.1742 C   0  0  0  0  0  0  0  0  0  0  0  0
   -1.0870   -0.2981   -6.5138 C   0  0  0  0  0  0  0  0  0  0  0  0
   -0.3984    0.5862   -5.6809 C   0  0  0  0  0  0  0  0  0  0  0  0
   -0.9382    1.0393   -4.4754 C   0  0  0  0  0  0  0  0  0  0  0  0
   -2.2357    0.6648   -4.1331 C   0  0  0  0  0  0  0  0  0  0  0  0
   -2.9420   -0.1777   -4.9940 C   0  0  0  0  0  0  0  0  0  0  0  0
   -2.9633   -1.3461   -6.8027 H   0  0  0  0  0  0  0  0  0  0  0  0
   -0.6141   -0.6662   -7.4216 H   0  0  0  0  0  0  0  0  0  0  0  0
   -0.3519    1.6900   -3.8303 H   0  0  0  0  0  0  0  0  0  0  0  0
   -2.7012    1.0088   -3.2132 H   0  0  0  0  0  0  0  0  0  0  0  0
   -4.3191   -0.5734   -4.6339 N   0  0  0  0  0  0  0  0  0  0  0  0
   -4.7838   -0.1291   -3.5877 O   0  0  0  0  0  0  0  0  0  0  0  0
   -4.9164   -1.3205   -5.4039 O   0  0  0  0  0  0  0  0  0  0  0  0
   -0.9648    2.5613   -6.9355 N   0  0  0  0  0  0  0  0  0  0  0  0
   -1.9122    3.0673   -7.1977 N   0  0  0  0  0  0  0  0  0  0  0  0
    2.1413   -0.0333   -5.4587 S   0  0  0  0  0  0  0  0  0  0  0  0
    3.5075    1.0281   -6.2595 C   0  0  0  0  0  0  0  0  0  0  0  0
    0.9095    0.9616   -6.0227 O   0  0  0  0  0  0  0  0  0  0  0  0
    2.2538    0.0775   -3.9952 O   0  0  0  0  0  0  0  0  0  0  0  0
    2.0943   -1.3366   -6.1413 O   0  0  0  0  0  0  0  0  0  0  0  0
    3.3395    1.0615   -7.5798 F   0  0  0  0  0  0  0  0  0  0  0  0
    3.4738    2.2618   -5.7601 F   0  0  0  0  0  0  0  0  0  0  0  0
    4.6721    0.4482   -5.9629 F   0  0  0  0  0  0  0  0  0  0  0  0
  1  6  1  0  0  0  0
  2  1  2  0  0  0  0
  2  3  1  0  0  0  0
  3  4  2  0  0  0  0
  4  5  1  0  0  0  0
  4  9  1  0  0  0  0
  5 10  1  0  0  0  0
  6 11  1  0  0  0  0
  6  5  2  0  0  0  0
  7  1  1  0  0  0  0
  8  2  1  0  0  0  0
 11 12  2  0  0  0  0
 13 11  2  0  0  0  0
 15 14  3  0  0  0  0
 16 19  2  0  0  0  0
 17 23  1  0  0  0  0
 17 22  1  0  0  0  0
 17 16  1  0  0  0  0
 18  3  1  0  0  0  0
 18 16  1  0  0  0  0
 20 16  2  0  0  0  0
 21 17  1  0  0  0  0
M  END
