Coordinates from ORCA-job p-NO2-Ph-N2-OTf-B3LYPG-aug-cc-pVDZ-scan-d29-49-n200
 OpenBabel01151817083D

 23 22  0  0  1  0  0  0  0  0999 V2000
   -1.2791   -0.2163   -5.6678 C   0  0  0  0  0  0  0  0  0  0  0  0
   -0.3793    0.7923   -5.0295 C   0  0  1  0  0  0  0  0  0  0  0  0
   -0.9002    1.5373   -3.9063 C   0  0  0  0  0  0  0  0  0  0  0  0
   -2.2748    1.6637   -3.7314 C   0  0  0  0  0  0  0  0  0  0  0  0
   -3.0345    0.5655   -4.1396 C   0  0  0  0  0  0  0  0  0  0  0  0
   -2.5309   -0.3132   -5.1539 C   0  0  0  0  0  0  0  0  0  0  0  0
   -0.9950   -0.7340   -6.5813 H   0  0  0  0  0  0  0  0  0  0  0  0
   -0.1640    1.5692   -5.8050 H   0  0  0  0  0  0  0  0  0  0  0  0
   -2.7029    2.4048   -3.0542 H   0  0  0  0  0  0  0  0  0  0  0  0
   -3.9960    0.3317   -3.6840 H   0  0  0  0  0  0  0  0  0  0  0  0
   -3.4638   -1.3203   -5.7212 N   0  0  0  0  0  0  0  0  0  0  0  0
   -4.5109   -1.5141   -5.1122 O   0  0  0  0  0  0  0  0  0  0  0  0
   -3.1264   -1.8945   -6.7486 O   0  0  0  0  0  0  0  0  0  0  0  0
   -0.6674    3.5920   -7.6845 N   0  0  0  0  0  0  0  0  0  0  0  0
   -0.3911    4.3990   -8.3850 N   0  0  0  0  0  0  0  0  0  0  0  0
    2.2924    0.6825   -5.4217 S   0  0  0  0  0  0  0  0  0  0  0  0
    2.6282   -0.8245   -6.5311 C   0  0  0  0  0  0  0  0  0  0  0  0
    1.9742    1.8105   -6.3240 O   0  0  0  0  0  0  0  0  0  0  0  0
    3.3662    0.7248   -4.4239 O   0  0  0  0  0  0  0  0  0  0  0  0
    0.9197    0.1490   -4.6847 O   0  0  0  0  0  0  0  0  0  0  0  0
    1.5941   -0.9954   -7.3689 F   0  0  0  0  0  0  0  0  0  0  0  0
    3.7372   -0.5925   -7.2348 F   0  0  0  0  0  0  0  0  0  0  0  0
    2.7835   -1.9165   -5.7844 F   0  0  0  0  0  0  0  0  0  0  0  0
  1  6  2  0  0  0  0
  1  2  1  0  0  0  0
  2  8  1  6  0  0  0
  2 20  1  0  0  0  0
  2  3  1  0  0  0  0
  3  4  1  0  0  0  0
  4  9  1  0  0  0  0
  5  4  1  0  0  0  0
  5 10  1  0  0  0  0
  6  5  1  0  0  0  0
  7  1  1  0  0  0  0
 11  6  1  0  0  0  0
 11 12  2  0  0  0  0
 13 11  2  0  0  0  0
 15 14  3  0  0  0  0
 16 20  1  0  0  0  0
 16 19  2  0  0  0  0
 17 23  1  0  0  0  0
 17 16  1  0  0  0  0
 18 16  2  0  0  0  0
 21 17  1  0  0  0  0
 22 17  1  0  0  0  0
M  RAD  3   3   3   4   2   5   2
M  END
