Coordinates from ORCA-job p-NO2-Ph-N2-OTf-B3LYPG-aug-cc-pVDZ-scan-d29-49-n200
 OpenBabel01151817083D

 23 22  0  0  1  0  0  0  0  0999 V2000
   -1.2718   -0.2137   -5.6728 C   0  0  0  0  0  0  0  0  0  0  0  0
   -0.3704    0.7936   -5.0351 C   0  0  1  0  0  0  0  0  0  0  0  0
   -0.8904    1.5461   -3.9166 C   0  0  0  0  0  0  0  0  0  0  0  0
   -2.2659    1.6791   -3.7486 C   0  0  0  0  0  0  0  0  0  0  0  0
   -3.0300    0.5843   -4.1566 C   0  0  0  0  0  0  0  0  0  0  0  0
   -2.5266   -0.3016   -5.1647 C   0  0  0  0  0  0  0  0  0  0  0  0
   -0.9853   -0.7383   -6.5816 H   0  0  0  0  0  0  0  0  0  0  0  0
   -0.1524    1.5684   -5.8125 H   0  0  0  0  0  0  0  0  0  0  0  0
   -2.6932    2.4249   -3.0762 H   0  0  0  0  0  0  0  0  0  0  0  0
   -3.9959    0.3588   -3.7061 H   0  0  0  0  0  0  0  0  0  0  0  0
   -3.4620   -1.3064   -5.7320 N   0  0  0  0  0  0  0  0  0  0  0  0
   -4.5132   -1.4916   -5.1275 O   0  0  0  0  0  0  0  0  0  0  0  0
   -3.1222   -1.8878   -6.7546 O   0  0  0  0  0  0  0  0  0  0  0  0
   -0.7279    3.5378   -7.6181 N   0  0  0  0  0  0  0  0  0  0  0  0
   -0.4794    4.3564   -8.3156 N   0  0  0  0  0  0  0  0  0  0  0  0
    2.3017    0.6776   -5.4211 S   0  0  0  0  0  0  0  0  0  0  0  0
    2.6367   -0.8314   -6.5279 C   0  0  0  0  0  0  0  0  0  0  0  0
    1.9884    1.8051   -6.3258 O   0  0  0  0  0  0  0  0  0  0  0  0
    3.3731    0.7187   -4.4208 O   0  0  0  0  0  0  0  0  0  0  0  0
    0.9260    0.1480   -4.6871 O   0  0  0  0  0  0  0  0  0  0  0  0
    1.6037   -1.0015   -7.3673 F   0  0  0  0  0  0  0  0  0  0  0  0
    3.7474   -0.6026   -7.2298 F   0  0  0  0  0  0  0  0  0  0  0  0
    2.7885   -1.9227   -5.7795 F   0  0  0  0  0  0  0  0  0  0  0  0
  1  6  2  0  0  0  0
  1  2  1  0  0  0  0
  2  8  1  6  0  0  0
  2 20  1  0  0  0  0
  2  3  1  0  0  0  0
  3  4  1  0  0  0  0
  4  9  1  0  0  0  0
  5  4  1  0  0  0  0
  5 10  1  0  0  0  0
  6  5  1  0  0  0  0
  7  1  1  0  0  0  0
 11  6  1  0  0  0  0
 11 12  2  0  0  0  0
 13 11  2  0  0  0  0
 15 14  3  0  0  0  0
 16 20  1  0  0  0  0
 16 19  2  0  0  0  0
 17 23  1  0  0  0  0
 17 16  1  0  0  0  0
 18 16  2  0  0  0  0
 21 17  1  0  0  0  0
 22 17  1  0  0  0  0
M  RAD  3   3   3   4   2   5   2
M  END
