Coordinates from ORCA-job p-NO2-Ph-N2-OTf-B3LYPG-aug-cc-pVDZ-scan-d29-49-n200
 OpenBabel01151817083D

 23 22  0  0  1  0  0  0  0  0999 V2000
   -1.2979   -0.4025   -5.6709 C   0  0  0  0  0  0  0  0  0  0  0  0
   -0.4502    0.7640   -5.2779 C   0  0  1  0  0  0  0  0  0  0  0  0
   -1.0031    1.6939   -4.3206 C   0  0  0  0  0  0  0  0  0  0  0  0
   -2.3785    1.7790   -4.1372 C   0  0  0  0  0  0  0  0  0  0  0  0
   -3.0733    0.5764   -4.2850 C   0  0  0  0  0  0  0  0  0  0  0  0
   -2.5323   -0.4624   -5.1111 C   0  0  0  0  0  0  0  0  0  0  0  0
   -0.9996   -1.0790   -6.4689 H   0  0  0  0  0  0  0  0  0  0  0  0
   -0.2839    1.3770   -6.1985 H   0  0  0  0  0  0  0  0  0  0  0  0
   -2.8401    2.6205   -3.6180 H   0  0  0  0  0  0  0  0  0  0  0  0
   -4.0086    0.3858   -3.7601 H   0  0  0  0  0  0  0  0  0  0  0  0
   -3.4102   -1.6171   -5.4318 N   0  0  0  0  0  0  0  0  0  0  0  0
   -4.4320   -1.7414   -4.7644 O   0  0  0  0  0  0  0  0  0  0  0  0
   -3.0566   -2.3693   -6.3307 O   0  0  0  0  0  0  0  0  0  0  0  0
   -0.4401    4.5418   -7.0950 N   0  0  0  0  0  0  0  0  0  0  0  0
    0.0950    5.5039   -7.1786 N   0  0  0  0  0  0  0  0  0  0  0  0
    2.2127    0.6963   -5.7265 S   0  0  0  0  0  0  0  0  0  0  0  0
    2.6251   -1.0162   -6.4426 C   0  0  0  0  0  0  0  0  0  0  0  0
    1.8043    1.5470   -6.8662 O   0  0  0  0  0  0  0  0  0  0  0  0
    3.3002    1.0473   -4.8074 O   0  0  0  0  0  0  0  0  0  0  0  0
    0.8895    0.2832   -4.8355 O   0  0  0  0  0  0  0  0  0  0  0  0
    1.5922   -1.4469   -7.1821 F   0  0  0  0  0  0  0  0  0  0  0  0
    3.7073   -0.9012   -7.2133 F   0  0  0  0  0  0  0  0  0  0  0  0
    2.8591   -1.8791   -5.4554 F   0  0  0  0  0  0  0  0  0  0  0  0
  1  2  1  0  0  0  0
  1  6  2  0  0  0  0
  2  8  1  6  0  0  0
  2 20  1  0  0  0  0
  2  3  1  0  0  0  0
  3  4  1  0  0  0  0
  4  9  1  0  0  0  0
  5  4  1  0  0  0  0
  5 10  1  0  0  0  0
  6  5  1  0  0  0  0
  7  1  1  0  0  0  0
 11  6  1  0  0  0  0
 11 12  2  0  0  0  0
 13 11  2  0  0  0  0
 15 14  3  0  0  0  0
 16 20  1  0  0  0  0
 16 19  2  0  0  0  0
 17 16  1  0  0  0  0
 17 23  1  0  0  0  0
 18 16  2  0  0  0  0
 21 17  1  0  0  0  0
 22 17  1  0  0  0  0
M  RAD  3   3   3   4   2   5   2
M  END
