Coordinates from ORCA-job p-NO2-Ph-N2-OTf-B3LYPG-aug-cc-pVDZ-scan-d29-49-n200
 OpenBabel01151817083D

 23 22  0  0  1  0  0  0  0  0999 V2000
   -1.2854   -0.4422   -5.6810 C   0  0  0  0  0  0  0  0  0  0  0  0
   -0.4404    0.7573   -5.3973 C   0  0  1  0  0  0  0  0  0  0  0  0
   -0.9994    1.7727   -4.5360 C   0  0  0  0  0  0  0  0  0  0  0  0
   -2.3738    1.8745   -4.3621 C   0  0  0  0  0  0  0  0  0  0  0  0
   -3.0619    0.6587   -4.3896 C   0  0  0  0  0  0  0  0  0  0  0  0
   -2.5188   -0.4516   -5.1152 C   0  0  0  0  0  0  0  0  0  0  0  0
   -0.9874   -1.1880   -6.4148 H   0  0  0  0  0  0  0  0  0  0  0  0
   -0.2696    1.2829   -6.3691 H   0  0  0  0  0  0  0  0  0  0  0  0
   -2.8381    2.7621   -3.9295 H   0  0  0  0  0  0  0  0  0  0  0  0
   -3.9930    0.5140   -3.8430 H   0  0  0  0  0  0  0  0  0  0  0  0
   -3.3948   -1.6330   -5.3246 N   0  0  0  0  0  0  0  0  0  0  0  0
   -4.4129   -1.6986   -4.6435 O   0  0  0  0  0  0  0  0  0  0  0  0
   -3.0436   -2.4629   -6.1534 O   0  0  0  0  0  0  0  0  0  0  0  0
   -0.5760    4.5408   -6.6904 N   0  0  0  0  0  0  0  0  0  0  0  0
   -0.0811    5.5231   -6.5966 N   0  0  0  0  0  0  0  0  0  0  0  0
    2.2280    0.6842   -5.8068 S   0  0  0  0  0  0  0  0  0  0  0  0
    2.6514   -1.0657   -6.4179 C   0  0  0  0  0  0  0  0  0  0  0  0
    1.8287    1.4657   -6.9979 O   0  0  0  0  0  0  0  0  0  0  0  0
    3.3052    1.0915   -4.8989 O   0  0  0  0  0  0  0  0  0  0  0  0
    0.8975    0.3195   -4.9059 O   0  0  0  0  0  0  0  0  0  0  0  0
    1.6240   -1.5434   -7.1361 F   0  0  0  0  0  0  0  0  0  0  0  0
    3.7375   -0.9926   -7.1883 F   0  0  0  0  0  0  0  0  0  0  0  0
    2.8829   -1.8679   -5.3801 F   0  0  0  0  0  0  0  0  0  0  0  0
  1  2  1  0  0  0  0
  1  6  2  0  0  0  0
  2  8  1  6  0  0  0
  2 20  1  0  0  0  0
  2  3  1  0  0  0  0
  3  4  1  0  0  0  0
  4  9  1  0  0  0  0
  5  4  1  0  0  0  0
  5 10  1  0  0  0  0
  6  5  1  0  0  0  0
  7  1  1  0  0  0  0
 11  6  1  0  0  0  0
 11 12  2  0  0  0  0
 13 11  2  0  0  0  0
 14 15  3  0  0  0  0
 16 20  1  0  0  0  0
 16 19  2  0  0  0  0
 17 16  1  0  0  0  0
 17 23  1  0  0  0  0
 18 16  2  0  0  0  0
 21 17  1  0  0  0  0
 22 17  1  0  0  0  0
M  RAD  3   3   3   4   2   5   2
M  END
