Coordinates from ORCA-job p-NO2-Ph-N2-OTf-B3LYPG-aug-cc-pVDZ-scan-d09-29-n200
 OpenBabel01151817083D

 23 22  0  0  0  0  0  0  0  0999 V2000
   -2.3889   -0.6952   -6.1608 C   0  0  0  0  0  0  0  0  0  0  0  0
   -1.0837   -0.3344   -6.4913 C   0  0  0  0  0  0  0  0  0  0  0  0
   -0.3847    0.5244   -5.6414 C   0  0  0  0  0  0  0  0  0  0  0  0
   -0.9348    1.0030   -4.4511 C   0  0  0  0  0  0  0  0  0  0  0  0
   -2.2398    0.6434   -4.1188 C   0  0  0  0  0  0  0  0  0  0  0  0
   -2.9467   -0.1957   -4.9823 C   0  0  0  0  0  0  0  0  0  0  0  0
   -2.9736   -1.3539   -6.7975 H   0  0  0  0  0  0  0  0  0  0  0  0
   -0.6106   -0.7022   -7.3992 H   0  0  0  0  0  0  0  0  0  0  0  0
   -0.3484    1.6535   -3.8058 H   0  0  0  0  0  0  0  0  0  0  0  0
   -2.7115    0.9998   -3.2068 H   0  0  0  0  0  0  0  0  0  0  0  0
   -4.3315   -0.5748   -4.6327 N   0  0  0  0  0  0  0  0  0  0  0  0
   -4.7987   -0.1252   -3.5900 O   0  0  0  0  0  0  0  0  0  0  0  0
   -4.9313   -1.3158   -5.4065 O   0  0  0  0  0  0  0  0  0  0  0  0
   -1.0010    2.7165   -7.0334 N   0  0  0  0  0  0  0  0  0  0  0  0
   -1.9296    3.2465   -7.3112 N   0  0  0  0  0  0  0  0  0  0  0  0
    2.1700   -0.0515   -5.4471 S   0  0  0  0  0  0  0  0  0  0  0  0
    3.5083    1.0329   -6.2640 C   0  0  0  0  0  0  0  0  0  0  0  0
    0.9130    0.9212   -5.9965 O   0  0  0  0  0  0  0  0  0  0  0  0
    2.2968    0.0618   -3.9849 O   0  0  0  0  0  0  0  0  0  0  0  0
    2.1367   -1.3558   -6.1287 O   0  0  0  0  0  0  0  0  0  0  0  0
    3.3241    1.0628   -7.5822 F   0  0  0  0  0  0  0  0  0  0  0  0
    3.4588    2.2660   -5.7644 F   0  0  0  0  0  0  0  0  0  0  0  0
    4.6863    0.4736   -5.9811 F   0  0  0  0  0  0  0  0  0  0  0  0
  1  6  1  0  0  0  0
  2  1  2  0  0  0  0
  2  3  1  0  0  0  0
  3  4  2  0  0  0  0
  4  5  1  0  0  0  0
  4  9  1  0  0  0  0
  5 10  1  0  0  0  0
  6 11  1  0  0  0  0
  6  5  2  0  0  0  0
  7  1  1  0  0  0  0
  8  2  1  0  0  0  0
 11 12  2  0  0  0  0
 13 11  2  0  0  0  0
 15 14  3  0  0  0  0
 16 19  2  0  0  0  0
 17 23  1  0  0  0  0
 17 22  1  0  0  0  0
 17 16  1  0  0  0  0
 18  3  1  0  0  0  0
 18 16  1  0  0  0  0
 20 16  2  0  0  0  0
 21 17  1  0  0  0  0
M  END
