Coordinates from ORCA-job p-NO2-Ph-N2-OTf-B3LYPG-aug-cc-pVDZ-scan-d29-49-n200
 OpenBabel01151817083D

 23 22  0  0  1  0  0  0  0  0999 V2000
   -1.2927   -0.4218   -5.6739 C   0  0  0  0  0  0  0  0  0  0  0  0
   -0.4406    0.7526   -5.3158 C   0  0  1  0  0  0  0  0  0  0  0  0
   -0.9942    1.7137   -4.3919 C   0  0  0  0  0  0  0  0  0  0  0  0
   -2.3679    1.8161   -4.2171 C   0  0  0  0  0  0  0  0  0  0  0  0
   -3.0663    0.6104   -4.3242 C   0  0  0  0  0  0  0  0  0  0  0  0
   -2.5283   -0.4575   -5.1141 C   0  0  0  0  0  0  0  0  0  0  0  0
   -0.9968   -1.1238   -6.4505 H   0  0  0  0  0  0  0  0  0  0  0  0
   -0.2698    1.3376   -6.2536 H   0  0  0  0  0  0  0  0  0  0  0  0
   -2.8280    2.6781   -3.7312 H   0  0  0  0  0  0  0  0  0  0  0  0
   -4.0017    0.4402   -3.7926 H   0  0  0  0  0  0  0  0  0  0  0  0
   -3.4112   -1.6180   -5.3982 N   0  0  0  0  0  0  0  0  0  0  0  0
   -4.4295   -1.7211   -4.7219 O   0  0  0  0  0  0  0  0  0  0  0  0
   -3.0573   -2.4035   -6.2680 O   0  0  0  0  0  0  0  0  0  0  0  0
   -0.5212    4.5720   -6.9649 N   0  0  0  0  0  0  0  0  0  0  0  0
   -0.0102    5.5504   -6.9898 N   0  0  0  0  0  0  0  0  0  0  0  0
    2.2247    0.6815   -5.7445 S   0  0  0  0  0  0  0  0  0  0  0  0
    2.6399   -1.0405   -6.4356 C   0  0  0  0  0  0  0  0  0  0  0  0
    1.8232    1.5172   -6.8980 O   0  0  0  0  0  0  0  0  0  0  0  0
    3.3067    1.0448   -4.8238 O   0  0  0  0  0  0  0  0  0  0  0  0
    0.8960    0.2799   -4.8559 O   0  0  0  0  0  0  0  0  0  0  0  0
    1.6092   -1.4812   -7.1724 F   0  0  0  0  0  0  0  0  0  0  0  0
    3.7247   -0.9364   -7.2043 F   0  0  0  0  0  0  0  0  0  0  0  0
    2.8705   -1.8897   -5.4358 F   0  0  0  0  0  0  0  0  0  0  0  0
  1  2  1  0  0  0  0
  1  6  2  0  0  0  0
  2  8  1  6  0  0  0
  2 20  1  0  0  0  0
  2  3  1  0  0  0  0
  3  4  1  0  0  0  0
  4  9  1  0  0  0  0
  5  4  1  0  0  0  0
  5 10  1  0  0  0  0
  6  5  1  0  0  0  0
  7  1  1  0  0  0  0
 11  6  1  0  0  0  0
 11 12  2  0  0  0  0
 13 11  2  0  0  0  0
 15 14  3  0  0  0  0
 16 20  1  0  0  0  0
 16 19  2  0  0  0  0
 17 16  1  0  0  0  0
 17 23  1  0  0  0  0
 18 16  2  0  0  0  0
 21 17  1  0  0  0  0
 22 17  1  0  0  0  0
M  RAD  3   3   3   4   2   5   2
M  END
