Coordinates from ORCA-job p-NO2-Ph-N2-OTf-B3LYPG-aug-cc-pVDZ-scan-d09-29-n200
 OpenBabel01151817083D

 23 22  0  0  0  0  0  0  0  0999 V2000
   -2.3883   -0.6892   -6.1645 C   0  0  0  0  0  0  0  0  0  0  0  0
   -1.0844   -0.3258   -6.4964 C   0  0  0  0  0  0  0  0  0  0  0  0
   -0.3874    0.5373   -5.6496 C   0  0  0  0  0  0  0  0  0  0  0  0
   -0.9355    1.0113   -4.4568 C   0  0  0  0  0  0  0  0  0  0  0  0
   -2.2393    0.6492   -4.1228 C   0  0  0  0  0  0  0  0  0  0  0  0
   -2.9462   -0.1903   -4.9858 C   0  0  0  0  0  0  0  0  0  0  0  0
   -2.9719   -1.3504   -6.7997 H   0  0  0  0  0  0  0  0  0  0  0  0
   -0.6114   -0.6940   -7.4042 H   0  0  0  0  0  0  0  0  0  0  0  0
   -0.3492    1.6616   -3.8113 H   0  0  0  0  0  0  0  0  0  0  0  0
   -2.7098    1.0034   -3.2094 H   0  0  0  0  0  0  0  0  0  0  0  0
   -4.3298   -0.5720   -4.6346 N   0  0  0  0  0  0  0  0  0  0  0  0
   -4.7964   -0.1236   -3.5911 O   0  0  0  0  0  0  0  0  0  0  0  0
   -4.9291   -1.3144   -5.4075 O   0  0  0  0  0  0  0  0  0  0  0  0
   -0.9899    2.6711   -7.0046 N   0  0  0  0  0  0  0  0  0  0  0  0
   -1.9239    3.1941   -7.2780 N   0  0  0  0  0  0  0  0  0  0  0  0
    2.1642   -0.0467   -5.4501 S   0  0  0  0  0  0  0  0  0  0  0  0
    3.5078    1.0334   -6.2641 C   0  0  0  0  0  0  0  0  0  0  0  0
    0.9119    0.9301   -6.0022 O   0  0  0  0  0  0  0  0  0  0  0  0
    2.2883    0.0660   -3.9876 O   0  0  0  0  0  0  0  0  0  0  0  0
    2.1283   -1.3510   -6.1318 O   0  0  0  0  0  0  0  0  0  0  0  0
    3.3265    1.0640   -7.5827 F   0  0  0  0  0  0  0  0  0  0  0  0
    3.4612    2.2667   -5.7646 F   0  0  0  0  0  0  0  0  0  0  0  0
    4.6833    0.4703   -5.9786 F   0  0  0  0  0  0  0  0  0  0  0  0
  1  6  1  0  0  0  0
  2  1  2  0  0  0  0
  2  3  1  0  0  0  0
  3  4  2  0  0  0  0
  4  5  1  0  0  0  0
  4  9  1  0  0  0  0
  5 10  1  0  0  0  0
  6 11  1  0  0  0  0
  6  5  2  0  0  0  0
  7  1  1  0  0  0  0
  8  2  1  0  0  0  0
 11 12  2  0  0  0  0
 13 11  2  0  0  0  0
 15 14  3  0  0  0  0
 16 19  2  0  0  0  0
 17 23  1  0  0  0  0
 17 22  1  0  0  0  0
 17 16  1  0  0  0  0
 18  3  1  0  0  0  0
 18 16  1  0  0  0  0
 20 16  2  0  0  0  0
 21 17  1  0  0  0  0
M  END
