Coordinates from ORCA-job p-NO2-Ph-N2-OTf-B3LYPG-aug-cc-pVDZ-scan-d09-29-n200
 OpenBabel01151817083D

 23 22  0  0  0  0  0  0  0  0999 V2000
   -2.3887   -0.6926   -6.1624 C   0  0  0  0  0  0  0  0  0  0  0  0
   -1.0840   -0.3310   -6.4933 C   0  0  0  0  0  0  0  0  0  0  0  0
   -0.3858    0.5296   -5.6447 C   0  0  0  0  0  0  0  0  0  0  0  0
   -0.9351    1.0064   -4.4534 C   0  0  0  0  0  0  0  0  0  0  0  0
   -2.2397    0.6459   -4.1205 C   0  0  0  0  0  0  0  0  0  0  0  0
   -2.9466   -0.1933   -4.9839 C   0  0  0  0  0  0  0  0  0  0  0  0
   -2.9730   -1.3523   -6.7985 H   0  0  0  0  0  0  0  0  0  0  0  0
   -0.6110   -0.6992   -7.4011 H   0  0  0  0  0  0  0  0  0  0  0  0
   -0.3488    1.6565   -3.8078 H   0  0  0  0  0  0  0  0  0  0  0  0
   -2.7109    1.0015   -3.2080 H   0  0  0  0  0  0  0  0  0  0  0  0
   -4.3311   -0.5732   -4.6338 N   0  0  0  0  0  0  0  0  0  0  0  0
   -4.7980   -0.1240   -3.5908 O   0  0  0  0  0  0  0  0  0  0  0  0
   -4.9307   -1.3147   -5.4072 O   0  0  0  0  0  0  0  0  0  0  0  0
   -0.9963    2.6966   -7.0208 N   0  0  0  0  0  0  0  0  0  0  0  0
   -1.9273    3.2234   -7.2966 N   0  0  0  0  0  0  0  0  0  0  0  0
    2.1679   -0.0495   -5.4484 S   0  0  0  0  0  0  0  0  0  0  0  0
    3.5081    1.0334   -6.2642 C   0  0  0  0  0  0  0  0  0  0  0  0
    0.9127    0.9249   -5.9988 O   0  0  0  0  0  0  0  0  0  0  0  0
    2.2937    0.0636   -3.9861 O   0  0  0  0  0  0  0  0  0  0  0  0
    2.1337   -1.3537   -6.1302 O   0  0  0  0  0  0  0  0  0  0  0  0
    3.3251    1.0636   -7.5826 F   0  0  0  0  0  0  0  0  0  0  0  0
    3.4598    2.2665   -5.7646 F   0  0  0  0  0  0  0  0  0  0  0  0
    4.6852    0.4727   -5.9804 F   0  0  0  0  0  0  0  0  0  0  0  0
  1  6  1  0  0  0  0
  2  1  2  0  0  0  0
  2  3  1  0  0  0  0
  3  4  2  0  0  0  0
  4  5  1  0  0  0  0
  4  9  1  0  0  0  0
  5 10  1  0  0  0  0
  6 11  1  0  0  0  0
  6  5  2  0  0  0  0
  7  1  1  0  0  0  0
  8  2  1  0  0  0  0
 11 12  2  0  0  0  0
 13 11  2  0  0  0  0
 15 14  3  0  0  0  0
 16 19  2  0  0  0  0
 17 23  1  0  0  0  0
 17 22  1  0  0  0  0
 17 16  1  0  0  0  0
 18  3  1  0  0  0  0
 18 16  1  0  0  0  0
 20 16  2  0  0  0  0
 21 17  1  0  0  0  0
M  END
