Coordinates from ORCA-job p-NO2-Ph-N2-OTf-B3LYPG-aug-cc-pVDZ-scan-d09-29-n200
 OpenBabel01151817083D

 23 23  0  0  1  0  0  0  0  0999 V2000
   -1.3845   -0.2200   -6.0121 C   0  0  0  0  0  0  0  0  0  0  0  0
   -0.5100    0.9866   -6.0466 C   0  0  1  0  0  0  0  0  0  0  0  0
   -1.1592    2.2460   -5.4232 C   0  0  0  0  0  0  0  0  0  0  0  0
   -2.2593    2.0167   -4.4542 C   0  0  0  0  0  0  0  0  0  0  0  0
   -2.8668    0.8184   -4.3339 C   0  0  0  0  0  0  0  0  0  0  0  0
   -2.4421   -0.2747   -5.1819 C   0  0  0  0  0  0  0  0  0  0  0  0
   -1.1247   -1.0693   -6.6387 H   0  0  0  0  0  0  0  0  0  0  0  0
   -0.1630    1.2251   -7.0578 H   0  0  0  0  0  0  0  0  0  0  0  0
   -2.5618    2.8777   -3.8585 H   0  0  0  0  0  0  0  0  0  0  0  0
   -3.6825    0.6594   -3.6350 H   0  0  0  0  0  0  0  0  0  0  0  0
   -3.2386   -1.5304   -5.1406 N   0  0  0  0  0  0  0  0  0  0  0  0
   -4.1672   -1.5713   -4.3395 O   0  0  0  0  0  0  0  0  0  0  0  0
   -2.9230   -2.4391   -5.8995 O   0  0  0  0  0  0  0  0  0  0  0  0
   -0.8052    3.1627   -5.6589 N   0  0  0  0  0  0  0  0  0  0  0  0
   -0.3900    4.2159   -5.9330 N   0  0  0  0  0  0  0  0  0  0  0  0
    2.2095    0.8069   -5.9102 S   0  0  0  0  0  0  0  0  0  0  0  0
    2.5430   -1.0310   -6.2728 C   0  0  0  0  0  0  0  0  0  0  0  0
    2.1176    1.4937   -7.2133 O   0  0  0  0  0  0  0  0  0  0  0  0
    3.1252    1.2125   -4.8389 O   0  0  0  0  0  0  0  0  0  0  0  0
    0.7020    0.6689   -5.2322 O   0  0  0  0  0  0  0  0  0  0  0  0
    1.6027   -1.4894   -7.1114 F   0  0  0  0  0  0  0  0  0  0  0  0
    3.7422   -1.1342   -6.8449 F   0  0  0  0  0  0  0  0  0  0  0  0
    2.5150   -1.7302   -5.1407 F   0  0  0  0  0  0  0  0  0  0  0  0
  1  6  2  0  0  0  0
  2  8  1  6  0  0  0
  2  1  1  0  0  0  0
  2  3  1  0  0  0  0
  2 20  1  0  0  0  0
  3  4  2  0  0  0  0
  4  5  1  0  0  0  0
  4  9  1  0  0  0  0
  5 10  1  0  0  0  0
  6 11  1  0  0  0  0
  6  5  1  0  0  0  0
  7  1  1  0  0  0  0
 11 12  2  0  0  0  0
 13 11  2  0  0  0  0
 14  3  1  0  0  0  0
 15 14  1  0  0  0  0
 16 20  1  0  0  0  0
 16 19  2  0  0  0  0
 17 16  1  0  0  0  0
 17 23  1  0  0  0  0
 18 16  2  0  0  0  0
 21 17  1  0  0  0  0
 22 17  1  0  0  0  0
M  RAD  3   5   2  14   2  15   3
M  END
