Coordinates from ORCA-job p-NO2-Ph-N2-OTf-B3LYPG-aug-cc-pVDZ-scan-d29-49-n200
 OpenBabel01151817083D

 23 22  0  0  1  0  0  0  0  0999 V2000
   -1.2687   -0.2136   -5.6742 C   0  0  0  0  0  0  0  0  0  0  0  0
   -0.3667    0.7934   -5.0370 C   0  0  1  0  0  0  0  0  0  0  0  0
   -0.8864    1.5497   -3.9210 C   0  0  0  0  0  0  0  0  0  0  0  0
   -2.2623    1.6855   -3.7563 C   0  0  0  0  0  0  0  0  0  0  0  0
   -3.0284    0.5922   -4.1639 C   0  0  0  0  0  0  0  0  0  0  0  0
   -2.5248   -0.2974   -5.1688 C   0  0  0  0  0  0  0  0  0  0  0  0
   -0.9810   -0.7417   -6.5806 H   0  0  0  0  0  0  0  0  0  0  0  0
   -0.1478    1.5676   -5.8148 H   0  0  0  0  0  0  0  0  0  0  0  0
   -2.6894    2.4339   -3.0866 H   0  0  0  0  0  0  0  0  0  0  0  0
   -3.9963    0.3705   -3.7158 H   0  0  0  0  0  0  0  0  0  0  0  0
   -3.4613   -1.3014   -5.7358 N   0  0  0  0  0  0  0  0  0  0  0  0
   -4.5147   -1.4821   -5.1337 O   0  0  0  0  0  0  0  0  0  0  0  0
   -3.1206   -1.8860   -6.7562 O   0  0  0  0  0  0  0  0  0  0  0  0
   -0.7516    3.5164   -7.5915 N   0  0  0  0  0  0  0  0  0  0  0  0
   -0.5135    4.3402   -8.2864 N   0  0  0  0  0  0  0  0  0  0  0  0
    2.3052    0.6757   -5.4209 S   0  0  0  0  0  0  0  0  0  0  0  0
    2.6401   -0.8338   -6.5271 C   0  0  0  0  0  0  0  0  0  0  0  0
    1.9929    1.8031   -6.3261 O   0  0  0  0  0  0  0  0  0  0  0  0
    3.3761    0.7164   -4.4200 O   0  0  0  0  0  0  0  0  0  0  0  0
    0.9288    0.1470   -4.6876 O   0  0  0  0  0  0  0  0  0  0  0  0
    1.6074   -1.0037   -7.3670 F   0  0  0  0  0  0  0  0  0  0  0  0
    3.7512   -0.6058   -7.2286 F   0  0  0  0  0  0  0  0  0  0  0  0
    2.7910   -1.9250   -5.7782 F   0  0  0  0  0  0  0  0  0  0  0  0
  1  6  2  0  0  0  0
  1  2  1  0  0  0  0
  2  8  1  6  0  0  0
  2 20  1  0  0  0  0
  2  3  1  0  0  0  0
  3  4  1  0  0  0  0
  4  9  1  0  0  0  0
  5  4  1  0  0  0  0
  5 10  1  0  0  0  0
  6  5  1  0  0  0  0
  7  1  1  0  0  0  0
 11  6  1  0  0  0  0
 11 12  2  0  0  0  0
 13 11  2  0  0  0  0
 15 14  3  0  0  0  0
 16 20  1  0  0  0  0
 16 19  2  0  0  0  0
 17 23  1  0  0  0  0
 17 16  1  0  0  0  0
 18 16  2  0  0  0  0
 21 17  1  0  0  0  0
 22 17  1  0  0  0  0
M  RAD  3   3   3   4   2   5   2
M  END
