Coordinates from ORCA-job p-NO2-Ph-N2-OTf-B3LYPG-aug-cc-pVDZ-scan-d29-49-n200
 OpenBabel01151817083D

 23 22  0  0  1  0  0  0  0  0999 V2000
   -1.2878   -0.4385   -5.6765 C   0  0  0  0  0  0  0  0  0  0  0  0
   -0.4407    0.7540   -5.3701 C   0  0  1  0  0  0  0  0  0  0  0  0
   -0.9974    1.7537   -4.4899 C   0  0  0  0  0  0  0  0  0  0  0  0
   -2.3719    1.8559   -4.3170 C   0  0  0  0  0  0  0  0  0  0  0  0
   -3.0640    0.6434   -4.3698 C   0  0  0  0  0  0  0  0  0  0  0  0
   -2.5224   -0.4553   -5.1138 C   0  0  0  0  0  0  0  0  0  0  0  0
   -0.9893   -1.1724   -6.4219 H   0  0  0  0  0  0  0  0  0  0  0  0
   -0.2711    1.2984   -6.3320 H   0  0  0  0  0  0  0  0  0  0  0  0
   -2.8342    2.7369   -3.8689 H   0  0  0  0  0  0  0  0  0  0  0  0
   -3.9980    0.4920   -3.8299 H   0  0  0  0  0  0  0  0  0  0  0  0
   -3.4006   -1.6308   -5.3459 N   0  0  0  0  0  0  0  0  0  0  0  0
   -4.4210   -1.7053   -4.6692 O   0  0  0  0  0  0  0  0  0  0  0  0
   -3.0492   -2.4469   -6.1882 O   0  0  0  0  0  0  0  0  0  0  0  0
   -0.5563    4.5559   -6.7767 N   0  0  0  0  0  0  0  0  0  0  0  0
   -0.0548    5.5380   -6.7227 N   0  0  0  0  0  0  0  0  0  0  0  0
    2.2266    0.6837   -5.7866 S   0  0  0  0  0  0  0  0  0  0  0  0
    2.6485   -1.0569   -6.4250 C   0  0  0  0  0  0  0  0  0  0  0  0
    1.8257    1.4835   -6.9653 O   0  0  0  0  0  0  0  0  0  0  0  0
    3.3053    1.0769   -4.8743 O   0  0  0  0  0  0  0  0  0  0  0  0
    0.8971    0.3053   -4.8895 O   0  0  0  0  0  0  0  0  0  0  0  0
    1.6200   -1.5232   -7.1491 F   0  0  0  0  0  0  0  0  0  0  0  0
    3.7336   -0.9724   -7.1956 F   0  0  0  0  0  0  0  0  0  0  0  0
    2.8810   -1.8749   -5.3999 F   0  0  0  0  0  0  0  0  0  0  0  0
  1  2  1  0  0  0  0
  1  6  2  0  0  0  0
  2  8  1  6  0  0  0
  2 20  1  0  0  0  0
  2  3  1  0  0  0  0
  3  4  1  0  0  0  0
  4  9  1  0  0  0  0
  5  4  1  0  0  0  0
  5 10  1  0  0  0  0
  6  5  1  0  0  0  0
  7  1  1  0  0  0  0
 11  6  1  0  0  0  0
 11 12  2  0  0  0  0
 13 11  2  0  0  0  0
 14 15  3  0  0  0  0
 16 20  1  0  0  0  0
 16 19  2  0  0  0  0
 17 16  1  0  0  0  0
 17 23  1  0  0  0  0
 18 16  2  0  0  0  0
 21 17  1  0  0  0  0
 22 17  1  0  0  0  0
M  RAD  3   3   3   4   2   5   2
M  END
