Coordinates from ORCA-job p-NO2-Ph-N2-OTf-B3LYPG-aug-cc-pVDZ-scan-d09-29-n200
 OpenBabel01151817083D

 23 22  0  0  0  0  0  0  0  0999 V2000
   -2.3734   -0.6594   -6.1808 C   0  0  0  0  0  0  0  0  0  0  0  0
   -1.0900   -0.2573   -6.5384 C   0  0  0  0  0  0  0  0  0  0  0  0
   -0.4209    0.6759   -5.7382 C   0  0  0  0  0  0  0  0  0  0  0  0
   -0.9429    1.0898   -4.5074 C   0  0  0  0  0  0  0  0  0  0  0  0
   -2.2263    0.6903   -4.1470 C   0  0  0  0  0  0  0  0  0  0  0  0
   -2.9305   -0.1633   -4.9997 C   0  0  0  0  0  0  0  0  0  0  0  0
   -2.9398   -1.3568   -6.7924 H   0  0  0  0  0  0  0  0  0  0  0  0
   -0.6169   -0.6279   -7.4452 H   0  0  0  0  0  0  0  0  0  0  0  0
   -0.3569    1.7449   -3.8665 H   0  0  0  0  0  0  0  0  0  0  0  0
   -2.6809    1.0166   -3.2153 H   0  0  0  0  0  0  0  0  0  0  0  0
   -4.2931   -0.5865   -4.6203 N   0  0  0  0  0  0  0  0  0  0  0  0
   -4.7525   -0.1500   -3.5683 O   0  0  0  0  0  0  0  0  0  0  0  0
   -4.8830   -1.3521   -5.3779 O   0  0  0  0  0  0  0  0  0  0  0  0
   -0.9415    2.4445   -6.8757 N   0  0  0  0  0  0  0  0  0  0  0  0
   -1.9046    2.9294   -7.1279 N   0  0  0  0  0  0  0  0  0  0  0  0
    2.0946   -0.0218   -5.4816 S   0  0  0  0  0  0  0  0  0  0  0  0
    3.5072    1.0125   -6.2362 C   0  0  0  0  0  0  0  0  0  0  0  0
    0.9065    1.0162   -6.0579 O   0  0  0  0  0  0  0  0  0  0  0  0
    2.1794    0.0641   -4.0147 O   0  0  0  0  0  0  0  0  0  0  0  0
    2.0292   -1.3129   -6.1854 O   0  0  0  0  0  0  0  0  0  0  0  0
    3.3692    1.0715   -7.5591 F   0  0  0  0  0  0  0  0  0  0  0  0
    3.4981    2.2388   -5.7176 F   0  0  0  0  0  0  0  0  0  0  0  0
    4.6479    0.3945   -5.9242 F   0  0  0  0  0  0  0  0  0  0  0  0
  1  6  1  0  0  0  0
  2  1  2  0  0  0  0
  2  3  1  0  0  0  0
  3  4  2  0  0  0  0
  4  5  1  0  0  0  0
  4  9  1  0  0  0  0
  5 10  1  0  0  0  0
  6 11  1  0  0  0  0
  6  5  2  0  0  0  0
  7  1  1  0  0  0  0
  8  2  1  0  0  0  0
 11 12  2  0  0  0  0
 13 11  2  0  0  0  0
 15 14  3  0  0  0  0
 16 19  2  0  0  0  0
 17 23  1  0  0  0  0
 17 22  1  0  0  0  0
 17 16  1  0  0  0  0
 18  3  1  0  0  0  0
 18 16  1  0  0  0  0
 20 16  2  0  0  0  0
 21 17  1  0  0  0  0
M  END
