Coordinates from ORCA-job p-NO2-Ph-N2-OTf-B3LYPG-aug-cc-pVDZ-scan-d09-29-n200
 OpenBabel01151817083D

 23 22  0  0  0  0  0  0  0  0999 V2000
   -2.3886   -0.6939   -6.1614 C   0  0  0  0  0  0  0  0  0  0  0  0
   -1.0835   -0.3328   -6.4919 C   0  0  0  0  0  0  0  0  0  0  0  0
   -0.3849    0.5256   -5.6421 C   0  0  0  0  0  0  0  0  0  0  0  0
   -0.9346    1.0042   -4.4523 C   0  0  0  0  0  0  0  0  0  0  0  0
   -2.2396    0.6444   -4.1197 C   0  0  0  0  0  0  0  0  0  0  0  0
   -2.9466   -0.1947   -4.9830 C   0  0  0  0  0  0  0  0  0  0  0  0
   -2.9731   -1.3528   -6.7981 H   0  0  0  0  0  0  0  0  0  0  0  0
   -0.6106   -0.7008   -7.3998 H   0  0  0  0  0  0  0  0  0  0  0  0
   -0.3484    1.6547   -3.8068 H   0  0  0  0  0  0  0  0  0  0  0  0
   -2.7110    1.0008   -3.2076 H   0  0  0  0  0  0  0  0  0  0  0  0
   -4.3314   -0.5738   -4.6334 N   0  0  0  0  0  0  0  0  0  0  0  0
   -4.7981   -0.1253   -3.5900 O   0  0  0  0  0  0  0  0  0  0  0  0
   -4.9307   -1.3159   -5.4065 O   0  0  0  0  0  0  0  0  0  0  0  0
   -0.9996    2.7093   -7.0287 N   0  0  0  0  0  0  0  0  0  0  0  0
   -1.9296    3.2375   -7.3055 N   0  0  0  0  0  0  0  0  0  0  0  0
    2.1688   -0.0506   -5.4477 S   0  0  0  0  0  0  0  0  0  0  0  0
    3.5083    1.0329   -6.2640 C   0  0  0  0  0  0  0  0  0  0  0  0
    0.9126    0.9229   -5.9975 O   0  0  0  0  0  0  0  0  0  0  0  0
    2.2950    0.0626   -3.9854 O   0  0  0  0  0  0  0  0  0  0  0  0
    2.1349   -1.3549   -6.1293 O   0  0  0  0  0  0  0  0  0  0  0  0
    3.3247    1.0629   -7.5823 F   0  0  0  0  0  0  0  0  0  0  0  0
    3.4594    2.2660   -5.7644 F   0  0  0  0  0  0  0  0  0  0  0  0
    4.6858    0.4728   -5.9805 F   0  0  0  0  0  0  0  0  0  0  0  0
  1  6  1  0  0  0  0
  2  1  2  0  0  0  0
  2  3  1  0  0  0  0
  3  4  2  0  0  0  0
  4  5  1  0  0  0  0
  4  9  1  0  0  0  0
  5 10  1  0  0  0  0
  6 11  1  0  0  0  0
  6  5  2  0  0  0  0
  7  1  1  0  0  0  0
  8  2  1  0  0  0  0
 11 12  2  0  0  0  0
 13 11  2  0  0  0  0
 15 14  3  0  0  0  0
 16 19  2  0  0  0  0
 17 23  1  0  0  0  0
 17 22  1  0  0  0  0
 17 16  1  0  0  0  0
 18  3  1  0  0  0  0
 18 16  1  0  0  0  0
 20 16  2  0  0  0  0
 21 17  1  0  0  0  0
M  END
