Coordinates from ORCA-job p-NO2-Ph-N2-OTf-B3LYPG-aug-cc-pVDZ-scan-d09-29-n200
 OpenBabel01151817083D

 23 22  0  0  0  0  0  0  0  0999 V2000
   -2.2354   -0.8840   -5.6889 C   0  0  0  0  0  0  0  0  0  0  0  0
   -1.3234   -0.1082   -6.4234 C   0  0  0  0  0  0  0  0  0  0  0  0
   -1.3632    1.2049   -6.0595 C   0  0  0  0  0  0  0  0  0  0  0  0
   -2.0796    1.9083   -5.1290 C   0  0  0  0  0  0  0  0  0  0  0  0
   -2.9718    1.0916   -4.4205 C   0  0  0  0  0  0  0  0  0  0  0  0
   -3.0325   -0.2720   -4.7200 C   0  0  0  0  0  0  0  0  0  0  0  0
   -2.3052   -1.9554   -5.8610 H   0  0  0  0  0  0  0  0  0  0  0  0
   -0.6062   -0.5049   -7.1424 H   0  0  0  0  0  0  0  0  0  0  0  0
   -1.9647    2.9702   -4.9358 H   0  0  0  0  0  0  0  0  0  0  0  0
   -3.6058    1.5097   -3.6423 H   0  0  0  0  0  0  0  0  0  0  0  0
   -3.9907   -1.1132   -3.9584 N   0  0  0  0  0  0  0  0  0  0  0  0
   -4.6601   -0.5569   -3.0956 O   0  0  0  0  0  0  0  0  0  0  0  0
   -4.0485   -2.3004   -4.2500 O   0  0  0  0  0  0  0  0  0  0  0  0
   -0.2432    2.2796   -7.0376 N   0  0  0  0  0  0  0  0  0  0  0  0
    0.1722    3.0672   -7.6893 N   0  0  0  0  0  0  0  0  0  0  0  0
    1.9244    0.3038   -5.9328 S   0  0  0  0  0  0  0  0  0  0  0  0
    3.7972    0.5546   -6.0766 C   0  0  0  0  0  0  0  0  0  0  0  0
    1.4374    1.5768   -5.2690 O   0  0  0  0  0  0  0  0  0  0  0  0
    1.7490   -0.9410   -5.1331 O   0  0  0  0  0  0  0  0  0  0  0  0
    1.4606    0.2146   -7.3742 O   0  0  0  0  0  0  0  0  0  0  0  0
    4.0649    1.6669   -6.7866 F   0  0  0  0  0  0  0  0  0  0  0  0
    4.3430    0.6833   -4.8570 F   0  0  0  0  0  0  0  0  0  0  0  0
    4.3611   -0.4947   -6.6950 F   0  0  0  0  0  0  0  0  0  0  0  0
  1  6  2  0  0  0  0
  2  3  2  0  0  0  0
  2  1  1  0  0  0  0
  3  4  1  0  0  0  0
  4  9  1  0  0  0  0
  4  5  2  0  0  0  0
  5 10  1  0  0  0  0
  6  5  1  0  0  0  0
  6 11  1  0  0  0  0
  7  1  1  0  0  0  0
  8  2  1  0  0  0  0
 11 12  2  0  0  0  0
 13 11  2  0  0  0  0
 14  3  1  0  0  0  0
 15 14  1  0  0  0  0
 16 18  2  0  0  0  0
 16 19  1  0  0  0  0
 17 16  1  0  0  0  0
 17 22  1  0  0  0  0
 20 16  2  0  0  0  0
 21 17  1  0  0  0  0
 23 17  1  0  0  0  0
M  RAD  3  14   2  15   3  19   2
M  END
