Coordinates from ORCA-job p-NO2-Ph-N2-OTf-B3LYPG-aug-cc-pVDZ-scan-d29-49-n200
 OpenBabel01151817083D

 23 22  0  0  1  0  0  0  0  0999 V2000
   -1.2898   -0.4319   -5.6747 C   0  0  0  0  0  0  0  0  0  0  0  0
   -0.4404    0.7523   -5.3439 C   0  0  1  0  0  0  0  0  0  0  0  0
   -0.9947    1.7359   -4.4437 C   0  0  0  0  0  0  0  0  0  0  0  0
   -2.3695    1.8370   -4.2696 C   0  0  0  0  0  0  0  0  0  0  0  0
   -3.0649    0.6277   -4.3478 C   0  0  0  0  0  0  0  0  0  0  0  0
   -2.5250   -0.4570   -5.1134 C   0  0  0  0  0  0  0  0  0  0  0  0
   -0.9925   -1.1514   -6.4345 H   0  0  0  0  0  0  0  0  0  0  0  0
   -0.2701    1.3156   -6.2949 H   0  0  0  0  0  0  0  0  0  0  0  0
   -2.8305    2.7096   -3.8039 H   0  0  0  0  0  0  0  0  0  0  0  0
   -3.9998    0.4678   -3.8120 H   0  0  0  0  0  0  0  0  0  0  0  0
   -3.4058   -1.6255   -5.3700 N   0  0  0  0  0  0  0  0  0  0  0  0
   -4.4262   -1.7121   -4.6946 O   0  0  0  0  0  0  0  0  0  0  0  0
   -3.0545   -2.4264   -6.2268 O   0  0  0  0  0  0  0  0  0  0  0  0
   -0.5417    4.5671   -6.8672 N   0  0  0  0  0  0  0  0  0  0  0  0
   -0.0356    5.5482   -6.8528 N   0  0  0  0  0  0  0  0  0  0  0  0
    2.2261    0.6819   -5.7651 S   0  0  0  0  0  0  0  0  0  0  0  0
    2.6447   -1.0492   -6.4308 C   0  0  0  0  0  0  0  0  0  0  0  0
    1.8252    1.5005   -6.9307 O   0  0  0  0  0  0  0  0  0  0  0  0
    3.3062    1.0594   -4.8478 O   0  0  0  0  0  0  0  0  0  0  0  0
    0.8966    0.2916   -4.8731 O   0  0  0  0  0  0  0  0  0  0  0  0
    1.6154   -1.5023   -7.1619 F   0  0  0  0  0  0  0  0  0  0  0  0
    3.7300   -0.9545   -7.2000 F   0  0  0  0  0  0  0  0  0  0  0  0
    2.8759   -1.8835   -5.4186 F   0  0  0  0  0  0  0  0  0  0  0  0
  1  2  1  0  0  0  0
  1  6  2  0  0  0  0
  2  8  1  6  0  0  0
  2 20  1  0  0  0  0
  2  3  1  0  0  0  0
  3  4  1  0  0  0  0
  4  9  1  0  0  0  0
  5  4  1  0  0  0  0
  5 10  1  0  0  0  0
  6  5  1  0  0  0  0
  7  1  1  0  0  0  0
 11  6  1  0  0  0  0
 11 12  2  0  0  0  0
 13 11  2  0  0  0  0
 14 15  3  0  0  0  0
 16 20  1  0  0  0  0
 16 19  2  0  0  0  0
 17 16  1  0  0  0  0
 17 23  1  0  0  0  0
 18 16  2  0  0  0  0
 21 17  1  0  0  0  0
 22 17  1  0  0  0  0
M  RAD  3   3   3   4   2   5   2
M  END
