Coordinates from ORCA-job p-NO2-Ph-N2-OTf-B3LYPG-aug-cc-pVDZ-scan-d29-49-n200
 OpenBabel01151817083D

 23 22  0  0  1  0  0  0  0  0999 V2000
   -1.2860   -0.4420   -5.6793 C   0  0  0  0  0  0  0  0  0  0  0  0
   -0.4406    0.7564   -5.3917 C   0  0  1  0  0  0  0  0  0  0  0  0
   -0.9994    1.7685   -4.5271 C   0  0  0  0  0  0  0  0  0  0  0  0
   -2.3735    1.8711   -4.3542 C   0  0  0  0  0  0  0  0  0  0  0  0
   -3.0627    0.6561   -4.3868 C   0  0  0  0  0  0  0  0  0  0  0  0
   -2.5198   -0.4526   -5.1147 C   0  0  0  0  0  0  0  0  0  0  0  0
   -0.9873   -1.1863   -6.4143 H   0  0  0  0  0  0  0  0  0  0  0  0
   -0.2706    1.2857   -6.3618 H   0  0  0  0  0  0  0  0  0  0  0  0
   -2.8372    2.7580   -3.9193 H   0  0  0  0  0  0  0  0  0  0  0  0
   -3.9950    0.5107   -3.8423 H   0  0  0  0  0  0  0  0  0  0  0  0
   -3.3960   -1.6331   -5.3279 N   0  0  0  0  0  0  0  0  0  0  0  0
   -4.4152   -1.6996   -4.6484 O   0  0  0  0  0  0  0  0  0  0  0  0
   -3.0445   -2.4609   -6.1586 O   0  0  0  0  0  0  0  0  0  0  0  0
   -0.5708    4.5427   -6.7055 N   0  0  0  0  0  0  0  0  0  0  0  0
   -0.0743    5.5251   -6.6191 N   0  0  0  0  0  0  0  0  0  0  0  0
    2.2276    0.6846   -5.8033 S   0  0  0  0  0  0  0  0  0  0  0  0
    2.6510   -1.0634   -6.4199 C   0  0  0  0  0  0  0  0  0  0  0  0
    1.8276    1.4696   -6.9921 O   0  0  0  0  0  0  0  0  0  0  0  0
    3.3051    1.0895   -4.8947 O   0  0  0  0  0  0  0  0  0  0  0  0
    0.8975    0.3168   -4.9028 O   0  0  0  0  0  0  0  0  0  0  0  0
    1.6233   -1.5392   -7.1389 F   0  0  0  0  0  0  0  0  0  0  0  0
    3.7367   -0.9879   -7.1906 F   0  0  0  0  0  0  0  0  0  0  0  0
    2.8832   -1.8686   -5.3845 F   0  0  0  0  0  0  0  0  0  0  0  0
  1  2  1  0  0  0  0
  1  6  2  0  0  0  0
  2  8  1  6  0  0  0
  2 20  1  0  0  0  0
  2  3  1  0  0  0  0
  3  4  1  0  0  0  0
  4  9  1  0  0  0  0
  5  4  1  0  0  0  0
  5 10  1  0  0  0  0
  6  5  1  0  0  0  0
  7  1  1  0  0  0  0
 11  6  1  0  0  0  0
 11 12  2  0  0  0  0
 13 11  2  0  0  0  0
 14 15  3  0  0  0  0
 16 20  1  0  0  0  0
 16 19  2  0  0  0  0
 17 16  1  0  0  0  0
 17 23  1  0  0  0  0
 18 16  2  0  0  0  0
 21 17  1  0  0  0  0
 22 17  1  0  0  0  0
M  RAD  3   3   3   4   2   5   2
M  END
