Coordinates from ORCA-job p-NO2-Ph-N2-OTf-B3LYPG-aug-cc-pVDZ-scan-d29-49-n200
 OpenBabel01151817083D

 23 22  0  0  1  0  0  0  0  0999 V2000
   -1.3034   -0.2407   -5.6388 C   0  0  0  0  0  0  0  0  0  0  0  0
   -0.4106    0.7739   -4.9997 C   0  0  1  0  0  0  0  0  0  0  0  0
   -0.9317    1.5000   -3.8662 C   0  0  0  0  0  0  0  0  0  0  0  0
   -2.3046    1.6060   -3.6735 C   0  0  0  0  0  0  0  0  0  0  0  0
   -3.0512    0.4978   -4.0810 C   0  0  0  0  0  0  0  0  0  0  0  0
   -2.5468   -0.3628   -5.1100 C   0  0  0  0  0  0  0  0  0  0  0  0
   -1.0240   -0.7417   -6.5630 H   0  0  0  0  0  0  0  0  0  0  0  0
   -0.2098    1.5571   -5.7649 H   0  0  0  0  0  0  0  0  0  0  0  0
   -2.7351    2.3342   -2.9841 H   0  0  0  0  0  0  0  0  0  0  0  0
   -4.0014    0.2428   -3.6131 H   0  0  0  0  0  0  0  0  0  0  0  0
   -3.4712   -1.3785   -5.6762 N   0  0  0  0  0  0  0  0  0  0  0  0
   -4.5092   -1.5920   -5.0583 O   0  0  0  0  0  0  0  0  0  0  0  0
   -3.1413   -1.9316   -6.7175 O   0  0  0  0  0  0  0  0  0  0  0  0
   -0.4533    3.8391   -7.9601 N   0  0  0  0  0  0  0  0  0  0  0  0
   -0.0536    4.6043   -8.6480 N   0  0  0  0  0  0  0  0  0  0  0  0
    2.2556    0.6975   -5.4228 S   0  0  0  0  0  0  0  0  0  0  0  0
    2.5967   -0.7999   -6.5437 C   0  0  0  0  0  0  0  0  0  0  0  0
    1.9105    1.8264   -6.3144 O   0  0  0  0  0  0  0  0  0  0  0  0
    3.3411    0.7489   -4.4384 O   0  0  0  0  0  0  0  0  0  0  0  0
    0.8988    0.1436   -4.6710 O   0  0  0  0  0  0  0  0  0  0  0  0
    1.5547   -0.9796   -7.3698 F   0  0  0  0  0  0  0  0  0  0  0  0
    3.6941   -0.5505   -7.2593 F   0  0  0  0  0  0  0  0  0  0  0  0
    2.7746   -1.8934   -5.8043 F   0  0  0  0  0  0  0  0  0  0  0  0
  1  6  2  0  0  0  0
  1  2  1  0  0  0  0
  2  8  1  6  0  0  0
  2 20  1  0  0  0  0
  2  3  1  0  0  0  0
  3  4  1  0  0  0  0
  4  9  1  0  0  0  0
  5  4  1  0  0  0  0
  5 10  1  0  0  0  0
  6  5  1  0  0  0  0
  7  1  1  0  0  0  0
 11  6  1  0  0  0  0
 11 12  2  0  0  0  0
 13 11  2  0  0  0  0
 15 14  3  0  0  0  0
 16 20  1  0  0  0  0
 16 19  2  0  0  0  0
 17 23  1  0  0  0  0
 17 16  1  0  0  0  0
 18 16  2  0  0  0  0
 21 17  1  0  0  0  0
 22 17  1  0  0  0  0
M  RAD  3   3   3   4   2   5   2
M  END
