Coordinates from ORCA-job p-NO2-Ph-N2-OTf-B3LYPG-aug-cc-pVDZ-scan-d09-29-n200
 OpenBabel01151817083D

 23 23  0  0  1  0  0  0  0  0999 V2000
   -1.3813   -0.2240   -6.0060 C   0  0  0  0  0  0  0  0  0  0  0  0
   -0.5030    0.9792   -6.0425 C   0  0  1  0  0  0  0  0  0  0  0  0
   -1.1411    2.2774   -5.4082 C   0  0  0  0  0  0  0  0  0  0  0  0
   -2.2635    2.0171   -4.4442 C   0  0  0  0  0  0  0  0  0  0  0  0
   -2.8750    0.8229   -4.3437 C   0  0  0  0  0  0  0  0  0  0  0  0
   -2.4478   -0.2729   -5.1897 C   0  0  0  0  0  0  0  0  0  0  0  0
   -1.1177   -1.0769   -6.6272 H   0  0  0  0  0  0  0  0  0  0  0  0
   -0.1803    1.2365   -7.0580 H   0  0  0  0  0  0  0  0  0  0  0  0
   -2.5597    2.8774   -3.8439 H   0  0  0  0  0  0  0  0  0  0  0  0
   -3.6986    0.6627   -3.6536 H   0  0  0  0  0  0  0  0  0  0  0  0
   -3.2506   -1.5245   -5.1553 N   0  0  0  0  0  0  0  0  0  0  0  0
   -4.1898   -1.5582   -4.3665 O   0  0  0  0  0  0  0  0  0  0  0  0
   -2.9276   -2.4375   -5.9057 O   0  0  0  0  0  0  0  0  0  0  0  0
   -0.8049    3.1082   -5.6163 N   0  0  0  0  0  0  0  0  0  0  0  0
   -0.3643    4.1708   -5.8808 N   0  0  0  0  0  0  0  0  0  0  0  0
    2.2110    0.8173   -5.9469 S   0  0  0  0  0  0  0  0  0  0  0  0
    2.5523   -1.0289   -6.2599 C   0  0  0  0  0  0  0  0  0  0  0  0
    2.0955    1.4671   -7.2657 O   0  0  0  0  0  0  0  0  0  0  0  0
    3.1279    1.2595   -4.8924 O   0  0  0  0  0  0  0  0  0  0  0  0
    0.7046    0.6783   -5.2478 O   0  0  0  0  0  0  0  0  0  0  0  0
    1.6078   -1.5154   -7.0769 F   0  0  0  0  0  0  0  0  0  0  0  0
    3.7472   -1.1400   -6.8388 F   0  0  0  0  0  0  0  0  0  0  0  0
    2.5380   -1.6946   -5.1080 F   0  0  0  0  0  0  0  0  0  0  0  0
  1  6  2  0  0  0  0
  2  8  1  6  0  0  0
  2  1  1  0  0  0  0
  2  3  1  0  0  0  0
  2 20  1  0  0  0  0
  3  4  2  0  0  0  0
  4  5  1  0  0  0  0
  4  9  1  0  0  0  0
  5 10  1  0  0  0  0
  6 11  1  0  0  0  0
  6  5  1  0  0  0  0
  7  1  1  0  0  0  0
 11 12  2  0  0  0  0
 13 11  2  0  0  0  0
 14  3  1  0  0  0  0
 15 14  1  0  0  0  0
 16 20  1  0  0  0  0
 16 19  2  0  0  0  0
 17 16  1  0  0  0  0
 17 23  1  0  0  0  0
 18 16  2  0  0  0  0
 21 17  1  0  0  0  0
 22 17  1  0  0  0  0
M  RAD  3   5   2  14   2  15   3
M  END
