Coordinates from ORCA-job p-NO2-Ph-N2-OTf-B3LYPG-aug-cc-pVDZ-scan-d29-49-n200
 OpenBabel01151817083D

 23 22  0  0  1  0  0  0  0  0999 V2000
   -1.2778   -0.2149   -5.6692 C   0  0  0  0  0  0  0  0  0  0  0  0
   -0.3776    0.7932   -5.0308 C   0  0  1  0  0  0  0  0  0  0  0  0
   -0.8983    1.5390   -3.9077 C   0  0  0  0  0  0  0  0  0  0  0  0
   -2.2731    1.6664   -3.7339 C   0  0  0  0  0  0  0  0  0  0  0  0
   -3.0335    0.5690   -4.1427 C   0  0  0  0  0  0  0  0  0  0  0  0
   -2.5301   -0.3105   -5.1563 C   0  0  0  0  0  0  0  0  0  0  0  0
   -0.9931   -0.7336   -6.5820 H   0  0  0  0  0  0  0  0  0  0  0  0
   -0.1619    1.5695   -5.8071 H   0  0  0  0  0  0  0  0  0  0  0  0
   -2.7010    2.4078   -3.0570 H   0  0  0  0  0  0  0  0  0  0  0  0
   -3.9958    0.3364   -3.6880 H   0  0  0  0  0  0  0  0  0  0  0  0
   -3.4634   -1.3169   -5.7240 N   0  0  0  0  0  0  0  0  0  0  0  0
   -4.5110   -1.5098   -5.1157 O   0  0  0  0  0  0  0  0  0  0  0  0
   -3.1254   -1.8923   -6.7505 O   0  0  0  0  0  0  0  0  0  0  0  0
   -0.6798    3.5801   -7.6713 N   0  0  0  0  0  0  0  0  0  0  0  0
   -0.4093    4.3892   -8.3716 N   0  0  0  0  0  0  0  0  0  0  0  0
    2.2945    0.6817   -5.4218 S   0  0  0  0  0  0  0  0  0  0  0  0
    2.6298   -0.8261   -6.5301 C   0  0  0  0  0  0  0  0  0  0  0  0
    1.9780    1.8093   -6.3252 O   0  0  0  0  0  0  0  0  0  0  0  0
    3.3676    0.7238   -4.4232 O   0  0  0  0  0  0  0  0  0  0  0  0
    0.9209    0.1497   -4.6855 O   0  0  0  0  0  0  0  0  0  0  0  0
    1.5959   -0.9970   -7.3681 F   0  0  0  0  0  0  0  0  0  0  0  0
    3.7392   -0.5954   -7.2335 F   0  0  0  0  0  0  0  0  0  0  0  0
    2.7841   -1.9177   -5.7826 F   0  0  0  0  0  0  0  0  0  0  0  0
  1  6  2  0  0  0  0
  1  2  1  0  0  0  0
  2  8  1  6  0  0  0
  2 20  1  0  0  0  0
  2  3  1  0  0  0  0
  3  4  1  0  0  0  0
  4  9  1  0  0  0  0
  5  4  1  0  0  0  0
  5 10  1  0  0  0  0
  6  5  1  0  0  0  0
  7  1  1  0  0  0  0
 11  6  1  0  0  0  0
 11 12  2  0  0  0  0
 13 11  2  0  0  0  0
 15 14  3  0  0  0  0
 16 20  1  0  0  0  0
 16 19  2  0  0  0  0
 17 23  1  0  0  0  0
 17 16  1  0  0  0  0
 18 16  2  0  0  0  0
 21 17  1  0  0  0  0
 22 17  1  0  0  0  0
M  RAD  3   3   3   4   2   5   2
M  END
