Coordinates from ORCA-job p-NO2-Ph-N2-OTf-B3LYPG-aug-cc-pVDZ-scan-d29-49-n200
 OpenBabel01151817083D

 23 22  0  0  1  0  0  0  0  0999 V2000
   -1.2814   -0.4409   -5.6977 C   0  0  0  0  0  0  0  0  0  0  0  0
   -0.4420    0.7764   -5.4799 C   0  0  1  0  0  0  0  0  0  0  0  0
   -1.0110    1.8297   -4.6714 C   0  0  0  0  0  0  0  0  0  0  0  0
   -2.3828    1.9323   -4.4916 C   0  0  0  0  0  0  0  0  0  0  0  0
   -3.0565    0.7086   -4.4458 C   0  0  0  0  0  0  0  0  0  0  0  0
   -2.5094   -0.4318   -5.1200 C   0  0  0  0  0  0  0  0  0  0  0  0
   -0.9859   -1.2176   -6.3996 H   0  0  0  0  0  0  0  0  0  0  0  0
   -0.2658    1.2472   -6.4766 H   0  0  0  0  0  0  0  0  0  0  0  0
   -2.8512    2.8381   -4.1032 H   0  0  0  0  0  0  0  0  0  0  0  0
   -3.9771    0.5821   -3.8776 H   0  0  0  0  0  0  0  0  0  0  0  0
   -3.3776   -1.6287   -5.2628 N   0  0  0  0  0  0  0  0  0  0  0  0
   -4.3880   -1.6696   -4.5682 O   0  0  0  0  0  0  0  0  0  0  0  0
   -3.0271   -2.4960   -6.0527 O   0  0  0  0  0  0  0  0  0  0  0  0
   -0.6197    4.3797   -6.4100 N   0  0  0  0  0  0  0  0  0  0  0  0
   -0.1422    5.3617   -6.2459 N   0  0  0  0  0  0  0  0  0  0  0  0
    2.2319    0.6989   -5.8606 S   0  0  0  0  0  0  0  0  0  0  0  0
    2.6580   -1.0729   -6.4029 C   0  0  0  0  0  0  0  0  0  0  0  0
    1.8425    1.4354   -7.0833 O   0  0  0  0  0  0  0  0  0  0  0  0
    3.3030    1.1392   -4.9609 O   0  0  0  0  0  0  0  0  0  0  0  0
    0.8955    0.3712   -4.9551 O   0  0  0  0  0  0  0  0  0  0  0  0
    1.6343   -1.5769   -7.1085 F   0  0  0  0  0  0  0  0  0  0  0  0
    3.7486   -1.0296   -7.1692 F   0  0  0  0  0  0  0  0  0  0  0  0
    2.8829   -1.8356   -5.3343 F   0  0  0  0  0  0  0  0  0  0  0  0
  1  2  1  0  0  0  0
  1  6  2  0  0  0  0
  2  8  1  6  0  0  0
  2 20  1  0  0  0  0
  2  3  1  0  0  0  0
  3  4  1  0  0  0  0
  4  5  1  0  0  0  0
  4  9  1  0  0  0  0
  5 10  1  0  0  0  0
  6  5  1  0  0  0  0
  7  1  1  0  0  0  0
 11  6  1  0  0  0  0
 11 12  2  0  0  0  0
 13 11  2  0  0  0  0
 14 15  3  0  0  0  0
 16 19  2  0  0  0  0
 16 20  1  0  0  0  0
 17 16  1  0  0  0  0
 17 23  1  0  0  0  0
 18 16  2  0  0  0  0
 21 17  1  0  0  0  0
 22 17  1  0  0  0  0
M  RAD  3   3   3   4   2   5   2
M  END
