Coordinates from ORCA-job p-NO2-Ph-N2-OTf-B3LYPG-aug-cc-pVDZ-scan-d09-29-n200
 OpenBabel01151817083D

 23 22  0  0  0  0  0  0  0  0999 V2000
   -2.3879   -0.6880   -6.1652 C   0  0  0  0  0  0  0  0  0  0  0  0
   -1.0845   -0.3235   -6.4978 C   0  0  0  0  0  0  0  0  0  0  0  0
   -0.3882    0.5410   -5.6520 C   0  0  0  0  0  0  0  0  0  0  0  0
   -0.9356    1.0136   -4.4584 C   0  0  0  0  0  0  0  0  0  0  0  0
   -2.2389    0.6504   -4.1236 C   0  0  0  0  0  0  0  0  0  0  0  0
   -2.9458   -0.1894   -4.9864 C   0  0  0  0  0  0  0  0  0  0  0  0
   -2.9711   -1.3500   -6.8000 H   0  0  0  0  0  0  0  0  0  0  0  0
   -0.6116   -0.6915   -7.4057 H   0  0  0  0  0  0  0  0  0  0  0  0
   -0.3494    1.6641   -3.8130 H   0  0  0  0  0  0  0  0  0  0  0  0
   -2.7090    1.0038   -3.2097 H   0  0  0  0  0  0  0  0  0  0  0  0
   -4.3288   -0.5725   -4.6343 N   0  0  0  0  0  0  0  0  0  0  0  0
   -4.7964   -0.1215   -3.5924 O   0  0  0  0  0  0  0  0  0  0  0  0
   -4.9291   -1.3123   -5.4088 O   0  0  0  0  0  0  0  0  0  0  0  0
   -0.9871    2.6581   -6.9964 N   0  0  0  0  0  0  0  0  0  0  0  0
   -1.9227    3.1790   -7.2684 N   0  0  0  0  0  0  0  0  0  0  0  0
    2.1625   -0.0452   -5.4511 S   0  0  0  0  0  0  0  0  0  0  0  0
    3.5077    1.0336   -6.2641 C   0  0  0  0  0  0  0  0  0  0  0  0
    0.9116    0.9329   -6.0040 O   0  0  0  0  0  0  0  0  0  0  0  0
    2.2858    0.0673   -3.9885 O   0  0  0  0  0  0  0  0  0  0  0  0
    2.1258   -1.3494   -6.1327 O   0  0  0  0  0  0  0  0  0  0  0  0
    3.3273    1.0643   -7.5829 F   0  0  0  0  0  0  0  0  0  0  0  0
    3.4620    2.2669   -5.7646 F   0  0  0  0  0  0  0  0  0  0  0  0
    4.6825    0.4693   -5.9779 F   0  0  0  0  0  0  0  0  0  0  0  0
  1  6  1  0  0  0  0
  2  1  2  0  0  0  0
  2  3  1  0  0  0  0
  3  4  2  0  0  0  0
  4  5  1  0  0  0  0
  4  9  1  0  0  0  0
  5 10  1  0  0  0  0
  6 11  1  0  0  0  0
  6  5  2  0  0  0  0
  7  1  1  0  0  0  0
  8  2  1  0  0  0  0
 11 12  2  0  0  0  0
 13 11  2  0  0  0  0
 15 14  3  0  0  0  0
 16 19  2  0  0  0  0
 17 23  1  0  0  0  0
 17 22  1  0  0  0  0
 17 16  1  0  0  0  0
 18  3  1  0  0  0  0
 18 16  1  0  0  0  0
 20 16  2  0  0  0  0
 21 17  1  0  0  0  0
M  END
