Coordinates from ORCA-job p-NO2-Ph-N2-OTf-B3LYPG-aug-cc-pVDZ-scan-d09-29-n200
 OpenBabel01151817083D

 23 22  0  0  0  0  0  0  0  0999 V2000
   -2.3721   -0.6591   -6.1805 C   0  0  0  0  0  0  0  0  0  0  0  0
   -1.0900   -0.2549   -6.5398 C   0  0  0  0  0  0  0  0  0  0  0  0
   -0.4228    0.6838   -5.7430 C   0  0  0  0  0  0  0  0  0  0  0  0
   -0.9437    1.0943   -4.5095 C   0  0  0  0  0  0  0  0  0  0  0  0
   -2.2258    0.6926   -4.1477 C   0  0  0  0  0  0  0  0  0  0  0  0
   -2.9295   -0.1624   -4.9997 C   0  0  0  0  0  0  0  0  0  0  0  0
   -2.9372   -1.3590   -6.7904 H   0  0  0  0  0  0  0  0  0  0  0  0
   -0.6167   -0.6260   -7.4462 H   0  0  0  0  0  0  0  0  0  0  0  0
   -0.3579    1.7501   -3.8691 H   0  0  0  0  0  0  0  0  0  0  0  0
   -2.6797    1.0177   -3.2153 H   0  0  0  0  0  0  0  0  0  0  0  0
   -4.2907   -0.5879   -4.6187 N   0  0  0  0  0  0  0  0  0  0  0  0
   -4.7509   -0.1497   -3.5678 O   0  0  0  0  0  0  0  0  0  0  0  0
   -4.8807   -1.3536   -5.3763 O   0  0  0  0  0  0  0  0  0  0  0  0
   -0.9401    2.4346   -6.8715 N   0  0  0  0  0  0  0  0  0  0  0  0
   -1.9044    2.9178   -7.1234 N   0  0  0  0  0  0  0  0  0  0  0  0
    2.0910   -0.0214   -5.4845 S   0  0  0  0  0  0  0  0  0  0  0  0
    3.5073    1.0116   -6.2340 C   0  0  0  0  0  0  0  0  0  0  0  0
    0.9068    1.0212   -6.0603 O   0  0  0  0  0  0  0  0  0  0  0  0
    2.1737    0.0607   -4.0173 O   0  0  0  0  0  0  0  0  0  0  0  0
    2.0241   -1.3103   -6.1920 O   0  0  0  0  0  0  0  0  0  0  0  0
    3.3718    1.0745   -7.5570 F   0  0  0  0  0  0  0  0  0  0  0  0
    3.5005    2.2365   -5.7121 F   0  0  0  0  0  0  0  0  0  0  0  0
    4.6460    0.3899   -5.9218 F   0  0  0  0  0  0  0  0  0  0  0  0
  1  6  1  0  0  0  0
  2  1  2  0  0  0  0
  2  3  1  0  0  0  0
  3  4  2  0  0  0  0
  4  5  1  0  0  0  0
  4  9  1  0  0  0  0
  5 10  1  0  0  0  0
  6 11  1  0  0  0  0
  6  5  2  0  0  0  0
  7  1  1  0  0  0  0
  8  2  1  0  0  0  0
 11 12  2  0  0  0  0
 13 11  2  0  0  0  0
 15 14  3  0  0  0  0
 16 19  2  0  0  0  0
 17 23  1  0  0  0  0
 17 22  1  0  0  0  0
 17 16  1  0  0  0  0
 18  3  1  0  0  0  0
 18 16  1  0  0  0  0
 20 16  2  0  0  0  0
 21 17  1  0  0  0  0
M  END
