Coordinates from ORCA-job p-NO2-Ph-N2-OTf-B3LYPG-aug-cc-pVDZ-scan-d29-49-n200
 OpenBabel01151817083D

 23 22  0  0  1  0  0  0  0  0999 V2000
   -1.2831   -0.4462   -5.6842 C   0  0  0  0  0  0  0  0  0  0  0  0
   -0.4408    0.7622   -5.4316 C   0  0  1  0  0  0  0  0  0  0  0  0
   -1.0033    1.7967   -4.5956 C   0  0  0  0  0  0  0  0  0  0  0  0
   -2.3773    1.9000   -4.4230 C   0  0  0  0  0  0  0  0  0  0  0  0
   -3.0612    0.6816   -4.4182 C   0  0  0  0  0  0  0  0  0  0  0  0
   -2.5156   -0.4450   -5.1165 C   0  0  0  0  0  0  0  0  0  0  0  0
   -0.9842   -1.2089   -6.4000 H   0  0  0  0  0  0  0  0  0  0  0  0
   -0.2701    1.2630   -6.4159 H   0  0  0  0  0  0  0  0  0  0  0  0
   -2.8433    2.7975   -4.0130 H   0  0  0  0  0  0  0  0  0  0  0  0
   -3.9906    0.5476   -3.8661 H   0  0  0  0  0  0  0  0  0  0  0  0
   -3.3885   -1.6336   -5.2952 N   0  0  0  0  0  0  0  0  0  0  0  0
   -4.4051   -1.6855   -4.6106 O   0  0  0  0  0  0  0  0  0  0  0  0
   -3.0353   -2.4838   -6.1023 O   0  0  0  0  0  0  0  0  0  0  0  0
   -0.5932    4.4879   -6.5691 N   0  0  0  0  0  0  0  0  0  0  0  0
   -0.1070    5.4690   -6.4283 N   0  0  0  0  0  0  0  0  0  0  0  0
    2.2293    0.6897   -5.8327 S   0  0  0  0  0  0  0  0  0  0  0  0
    2.6557   -1.0701   -6.4127 C   0  0  0  0  0  0  0  0  0  0  0  0
    1.8316    1.4500   -7.0381 O   0  0  0  0  0  0  0  0  0  0  0  0
    3.3043    1.1140   -4.9299 O   0  0  0  0  0  0  0  0  0  0  0  0
    0.8977    0.3396   -4.9277 O   0  0  0  0  0  0  0  0  0  0  0  0
    1.6295   -1.5616   -7.1233 F   0  0  0  0  0  0  0  0  0  0  0  0
    3.7424   -1.0092   -7.1832 F   0  0  0  0  0  0  0  0  0  0  0  0
    2.8871   -1.8536   -5.3607 F   0  0  0  0  0  0  0  0  0  0  0  0
  1  2  1  0  0  0  0
  1  6  2  0  0  0  0
  2  8  1  6  0  0  0
  2 20  1  0  0  0  0
  2  3  1  0  0  0  0
  3  4  1  0  0  0  0
  4  5  1  0  0  0  0
  4  9  1  0  0  0  0
  5 10  1  0  0  0  0
  6  5  1  0  0  0  0
  7  1  1  0  0  0  0
 11  6  1  0  0  0  0
 11 12  2  0  0  0  0
 13 11  2  0  0  0  0
 14 15  3  0  0  0  0
 16 19  2  0  0  0  0
 16 20  1  0  0  0  0
 17 16  1  0  0  0  0
 17 23  1  0  0  0  0
 18 16  2  0  0  0  0
 21 17  1  0  0  0  0
 22 17  1  0  0  0  0
M  RAD  3   3   3   4   2   5   2
M  END
