Coordinates from ORCA-job p-NO2-Ph-N2-OTf-B3LYPG-aug-cc-pVDZ-scan-d09-29-n200
 OpenBabel01151817083D

 23 23  0  0  1  0  0  0  0  0999 V2000
   -1.3860   -0.2221   -6.0117 C   0  0  0  0  0  0  0  0  0  0  0  0
   -0.5119    0.9845   -6.0475 C   0  0  1  0  0  0  0  0  0  0  0  0
   -1.1623    2.2398   -5.4270 C   0  0  0  0  0  0  0  0  0  0  0  0
   -2.2595    2.0163   -4.4573 C   0  0  0  0  0  0  0  0  0  0  0  0
   -2.8671    0.8179   -4.3332 C   0  0  0  0  0  0  0  0  0  0  0  0
   -2.4427   -0.2761   -5.1798 C   0  0  0  0  0  0  0  0  0  0  0  0
   -1.1268   -1.0721   -6.6377 H   0  0  0  0  0  0  0  0  0  0  0  0
   -0.1607    1.2193   -7.0579 H   0  0  0  0  0  0  0  0  0  0  0  0
   -2.5627    2.8782   -3.8633 H   0  0  0  0  0  0  0  0  0  0  0  0
   -3.6820    0.6602   -3.6332 H   0  0  0  0  0  0  0  0  0  0  0  0
   -3.2386   -1.5321   -5.1359 N   0  0  0  0  0  0  0  0  0  0  0  0
   -4.1664   -1.5724   -4.3340 O   0  0  0  0  0  0  0  0  0  0  0  0
   -2.9252   -2.4406   -5.8960 O   0  0  0  0  0  0  0  0  0  0  0  0
   -0.8009    3.1746   -5.6670 N   0  0  0  0  0  0  0  0  0  0  0  0
   -0.3860    4.2258   -5.9404 N   0  0  0  0  0  0  0  0  0  0  0  0
    2.2087    0.8060   -5.9026 S   0  0  0  0  0  0  0  0  0  0  0  0
    2.5433   -1.0292   -6.2771 C   0  0  0  0  0  0  0  0  0  0  0  0
    2.1204    1.5013   -7.2016 O   0  0  0  0  0  0  0  0  0  0  0  0
    3.1230    1.2044   -4.8274 O   0  0  0  0  0  0  0  0  0  0  0  0
    0.7009    0.6647   -5.2292 O   0  0  0  0  0  0  0  0  0  0  0  0
    1.6042   -1.4825   -7.1199 F   0  0  0  0  0  0  0  0  0  0  0  0
    3.7432   -1.1285   -6.8485 F   0  0  0  0  0  0  0  0  0  0  0  0
    2.5142   -1.7362   -5.1498 F   0  0  0  0  0  0  0  0  0  0  0  0
  1  6  2  0  0  0  0
  2  8  1  6  0  0  0
  2  1  1  0  0  0  0
  2  3  1  0  0  0  0
  2 20  1  0  0  0  0
  3  4  2  0  0  0  0
  4  5  1  0  0  0  0
  4  9  1  0  0  0  0
  5 10  1  0  0  0  0
  6 11  1  0  0  0  0
  6  5  1  0  0  0  0
  7  1  1  0  0  0  0
 11 12  2  0  0  0  0
 13 11  2  0  0  0  0
 14  3  1  0  0  0  0
 15 14  1  0  0  0  0
 16 20  1  0  0  0  0
 16 19  2  0  0  0  0
 17 16  1  0  0  0  0
 17 23  1  0  0  0  0
 18 16  2  0  0  0  0
 21 17  1  0  0  0  0
 22 17  1  0  0  0  0
M  RAD  3   5   2  14   2  15   3
M  END
