Coordinates from ORCA-job p-NO2-Ph-N2-OTf-B3LYPG-aug-cc-pVDZ-scan-d09-29-n200
 OpenBabel01151817083D

 23 22  0  0  0  0  0  0  0  0999 V2000
   -2.3892   -0.7128   -6.1494 C   0  0  0  0  0  0  0  0  0  0  0  0
   -1.0818   -0.3568   -6.4769 C   0  0  0  0  0  0  0  0  0  0  0  0
   -0.3793    0.4913   -5.6202 C   0  0  0  0  0  0  0  0  0  0  0  0
   -0.9328    0.9804   -4.4366 C   0  0  0  0  0  0  0  0  0  0  0  0
   -2.2401    0.6254   -4.1073 C   0  0  0  0  0  0  0  0  0  0  0  0
   -2.9469   -0.2132   -4.9711 C   0  0  0  0  0  0  0  0  0  0  0  0
   -2.9761   -1.3666   -6.7892 H   0  0  0  0  0  0  0  0  0  0  0  0
   -0.6084   -0.7223   -7.3856 H   0  0  0  0  0  0  0  0  0  0  0  0
   -0.3462    1.6323   -3.7930 H   0  0  0  0  0  0  0  0  0  0  0  0
   -2.7140    0.9866   -3.1984 H   0  0  0  0  0  0  0  0  0  0  0  0
   -4.3342   -0.5870   -4.6249 N   0  0  0  0  0  0  0  0  0  0  0  0
   -4.8028   -0.1341   -3.5843 O   0  0  0  0  0  0  0  0  0  0  0  0
   -4.9355   -1.3244   -5.4009 O   0  0  0  0  0  0  0  0  0  0  0  0
   -1.0279    2.8510   -7.1193 N   0  0  0  0  0  0  0  0  0  0  0  0
   -1.9372    3.4052   -7.4121 N   0  0  0  0  0  0  0  0  0  0  0  0
    2.1817   -0.0642   -5.4387 S   0  0  0  0  0  0  0  0  0  0  0  0
    3.5076    1.0300   -6.2627 C   0  0  0  0  0  0  0  0  0  0  0  0
    0.9139    0.8983   -5.9817 O   0  0  0  0  0  0  0  0  0  0  0  0
    2.3147    0.0504   -3.9771 O   0  0  0  0  0  0  0  0  0  0  0  0
    2.1545   -1.3691   -6.1196 O   0  0  0  0  0  0  0  0  0  0  0  0
    3.3165    1.0580   -7.5800 F   0  0  0  0  0  0  0  0  0  0  0  0
    3.4512    2.2629   -5.7633 F   0  0  0  0  0  0  0  0  0  0  0  0
    4.6913    0.4798   -5.9856 F   0  0  0  0  0  0  0  0  0  0  0  0
  1  6  1  0  0  0  0
  2  1  2  0  0  0  0
  2  3  1  0  0  0  0
  3  4  2  0  0  0  0
  4  5  1  0  0  0  0
  4  9  1  0  0  0  0
  5 10  1  0  0  0  0
  6 11  1  0  0  0  0
  6  5  2  0  0  0  0
  7  1  1  0  0  0  0
  8  2  1  0  0  0  0
 11 12  2  0  0  0  0
 13 11  2  0  0  0  0
 15 14  3  0  0  0  0
 16 19  2  0  0  0  0
 17 23  1  0  0  0  0
 17 22  1  0  0  0  0
 17 16  1  0  0  0  0
 18  3  1  0  0  0  0
 18 16  1  0  0  0  0
 20 16  2  0  0  0  0
 21 17  1  0  0  0  0
M  END
