Coordinates from ORCA-job p-NO2-Ph-N2-OTf-B3LYPG-aug-cc-pVDZ-scan-d29-49-n200
 OpenBabel01151817083D

 23 22  0  0  1  0  0  0  0  0999 V2000
   -1.2842   -0.2180   -5.6642 C   0  0  0  0  0  0  0  0  0  0  0  0
   -0.3854    0.7913   -5.0254 C   0  0  1  0  0  0  0  0  0  0  0  0
   -0.9065    1.5310   -3.8983 C   0  0  0  0  0  0  0  0  0  0  0  0
   -2.2807    1.6529   -3.7191 C   0  0  0  0  0  0  0  0  0  0  0  0
   -3.0376    0.5530   -4.1282 C   0  0  0  0  0  0  0  0  0  0  0  0
   -2.5341   -0.3206   -5.1467 C   0  0  0  0  0  0  0  0  0  0  0  0
   -1.0013   -0.7313   -6.5806 H   0  0  0  0  0  0  0  0  0  0  0  0
   -0.1724    1.5695   -5.8003 H   0  0  0  0  0  0  0  0  0  0  0  0
   -2.7091    2.3903   -3.0381 H   0  0  0  0  0  0  0  0  0  0  0  0
   -3.9964    0.3138   -3.6696 H   0  0  0  0  0  0  0  0  0  0  0  0
   -3.4653   -1.3290   -5.7146 N   0  0  0  0  0  0  0  0  0  0  0  0
   -4.5094   -1.5292   -5.1025 O   0  0  0  0  0  0  0  0  0  0  0  0
   -3.1291   -1.8988   -6.7448 O   0  0  0  0  0  0  0  0  0  0  0  0
   -0.6272    3.6280   -7.7306 N   0  0  0  0  0  0  0  0  0  0  0  0
   -0.3315    4.4278   -8.4316 N   0  0  0  0  0  0  0  0  0  0  0  0
    2.2864    0.6860   -5.4222 S   0  0  0  0  0  0  0  0  0  0  0  0
    2.6226   -0.8197   -6.5331 C   0  0  0  0  0  0  0  0  0  0  0  0
    1.9654    1.8141   -6.3235 O   0  0  0  0  0  0  0  0  0  0  0  0
    3.3616    0.7291   -4.4260 O   0  0  0  0  0  0  0  0  0  0  0  0
    0.9155    0.1503   -4.6835 O   0  0  0  0  0  0  0  0  0  0  0  0
    1.5873   -0.9916   -7.3694 F   0  0  0  0  0  0  0  0  0  0  0  0
    3.7301   -0.5858   -7.2383 F   0  0  0  0  0  0  0  0  0  0  0  0
    2.7805   -1.9120   -5.7873 F   0  0  0  0  0  0  0  0  0  0  0  0
  1  6  2  0  0  0  0
  1  2  1  0  0  0  0
  2  8  1  6  0  0  0
  2 20  1  0  0  0  0
  2  3  1  0  0  0  0
  3  4  1  0  0  0  0
  4  9  1  0  0  0  0
  5  4  1  0  0  0  0
  5 10  1  0  0  0  0
  6  5  1  0  0  0  0
  7  1  1  0  0  0  0
 11  6  1  0  0  0  0
 11 12  2  0  0  0  0
 13 11  2  0  0  0  0
 15 14  3  0  0  0  0
 16 20  1  0  0  0  0
 16 19  2  0  0  0  0
 17 23  1  0  0  0  0
 17 16  1  0  0  0  0
 18 16  2  0  0  0  0
 21 17  1  0  0  0  0
 22 17  1  0  0  0  0
M  RAD  3   3   3   4   2   5   2
M  END
