Coordinates from ORCA-job p-NO2-Ph-N2-OTf-B3LYPG-aug-cc-pVDZ-scan-d09-29-n200
 OpenBabel01151817083D

 23 22  0  0  0  0  0  0  0  0999 V2000
   -2.3880   -0.6867   -6.1661 C   0  0  0  0  0  0  0  0  0  0  0  0
   -1.0848   -0.3217   -6.4989 C   0  0  0  0  0  0  0  0  0  0  0  0
   -0.3888    0.5437   -5.6537 C   0  0  0  0  0  0  0  0  0  0  0  0
   -0.9359    1.0153   -4.4596 C   0  0  0  0  0  0  0  0  0  0  0  0
   -2.2389    0.6517   -4.1245 C   0  0  0  0  0  0  0  0  0  0  0  0
   -2.9459   -0.1881   -4.9872 C   0  0  0  0  0  0  0  0  0  0  0  0
   -2.9710   -1.3491   -6.8006 H   0  0  0  0  0  0  0  0  0  0  0  0
   -0.6119   -0.6898   -7.4068 H   0  0  0  0  0  0  0  0  0  0  0  0
   -0.3496    1.6657   -3.8141 H   0  0  0  0  0  0  0  0  0  0  0  0
   -2.7088    1.0048   -3.2103 H   0  0  0  0  0  0  0  0  0  0  0  0
   -4.3287   -0.5715   -4.6349 N   0  0  0  0  0  0  0  0  0  0  0  0
   -4.7949   -0.1240   -3.5909 O   0  0  0  0  0  0  0  0  0  0  0  0
   -4.9275   -1.3147   -5.4073 O   0  0  0  0  0  0  0  0  0  0  0  0
   -0.9854    2.6525   -6.9928 N   0  0  0  0  0  0  0  0  0  0  0  0
   -1.9216    3.1727   -7.2644 N   0  0  0  0  0  0  0  0  0  0  0  0
    2.1612   -0.0446   -5.4514 S   0  0  0  0  0  0  0  0  0  0  0  0
    3.5077    1.0331   -6.2637 C   0  0  0  0  0  0  0  0  0  0  0  0
    0.9114    0.9345   -6.0051 O   0  0  0  0  0  0  0  0  0  0  0  0
    2.2838    0.0678   -3.9888 O   0  0  0  0  0  0  0  0  0  0  0  0
    2.1239   -1.3488   -6.1331 O   0  0  0  0  0  0  0  0  0  0  0  0
    3.3281    1.0639   -7.5826 F   0  0  0  0  0  0  0  0  0  0  0  0
    3.4628    2.2664   -5.7643 F   0  0  0  0  0  0  0  0  0  0  0  0
    4.6819    0.4678   -5.9768 F   0  0  0  0  0  0  0  0  0  0  0  0
  1  6  1  0  0  0  0
  2  1  2  0  0  0  0
  2  3  1  0  0  0  0
  3  4  2  0  0  0  0
  4  5  1  0  0  0  0
  4  9  1  0  0  0  0
  5 10  1  0  0  0  0
  6 11  1  0  0  0  0
  6  5  2  0  0  0  0
  7  1  1  0  0  0  0
  8  2  1  0  0  0  0
 11 12  2  0  0  0  0
 13 11  2  0  0  0  0
 15 14  3  0  0  0  0
 16 19  2  0  0  0  0
 17 23  1  0  0  0  0
 17 22  1  0  0  0  0
 17 16  1  0  0  0  0
 18  3  1  0  0  0  0
 18 16  1  0  0  0  0
 20 16  2  0  0  0  0
 21 17  1  0  0  0  0
M  END
