Coordinates from ORCA-job p-NO2-Ph-N2-OTf-B3LYPG-aug-cc-pVDZ-scan-d09-29-n200
 OpenBabel01151817083D

 23 21  0  0  0  0  0  0  0  0999 V2000
   -2.2036   -0.8777   -5.6682 C   0  0  0  0  0  0  0  0  0  0  0  0
   -1.2992   -0.0891   -6.4040 C   0  0  0  0  0  0  0  0  0  0  0  0
   -1.3910    1.2136   -6.0392 C   0  0  0  0  0  0  0  0  0  0  0  0
   -2.1208    1.9289   -5.1371 C   0  0  0  0  0  0  0  0  0  0  0  0
   -3.0022    1.0944   -4.4303 C   0  0  0  0  0  0  0  0  0  0  0  0
   -3.0271   -0.2736   -4.7160 C   0  0  0  0  0  0  0  0  0  0  0  0
   -2.2418   -1.9527   -5.8289 H   0  0  0  0  0  0  0  0  0  0  0  0
   -0.5535   -0.4692   -7.1066 H   0  0  0  0  0  0  0  0  0  0  0  0
   -2.0323    2.9958   -4.9595 H   0  0  0  0  0  0  0  0  0  0  0  0
   -3.6553    1.5076   -3.6651 H   0  0  0  0  0  0  0  0  0  0  0  0
   -3.9747   -1.1284   -3.9568 N   0  0  0  0  0  0  0  0  0  0  0  0
   -4.6458   -0.5833   -3.0882 O   0  0  0  0  0  0  0  0  0  0  0  0
   -3.9825   -2.3238   -4.2183 O   0  0  0  0  0  0  0  0  0  0  0  0
   -0.2334    2.3599   -7.0837 N   0  0  0  0  0  0  0  0  0  0  0  0
    0.2076    3.1488   -7.7156 N   0  0  0  0  0  0  0  0  0  0  0  0
    1.9096    0.2886   -5.9432 S   0  0  0  0  0  0  0  0  0  0  0  0
    3.7856    0.5196   -6.0754 C   0  0  0  0  0  0  0  0  0  0  0  0
    1.4309    1.5557   -5.2671 O   0  0  0  0  0  0  0  0  0  0  0  0
    1.7168   -0.9654   -5.1601 O   0  0  0  0  0  0  0  0  0  0  0  0
    1.4537    0.2144   -7.3889 O   0  0  0  0  0  0  0  0  0  0  0  0
    4.0694    1.6366   -6.7719 F   0  0  0  0  0  0  0  0  0  0  0  0
    4.3269    0.6293   -4.8517 F   0  0  0  0  0  0  0  0  0  0  0  0
    4.3418   -0.5289   -6.7023 F   0  0  0  0  0  0  0  0  0  0  0  0
  1  6  2  0  0  0  0
  2  3  2  0  0  0  0
  2  1  1  0  0  0  0
  3  4  1  0  0  0  0
  4  9  1  0  0  0  0
  4  5  2  0  0  0  0
  5 10  1  0  0  0  0
  6  5  1  0  0  0  0
  6 11  1  0  0  0  0
  7  1  1  0  0  0  0
  8  2  1  0  0  0  0
 11 12  2  0  0  0  0
 13 11  2  0  0  0  0
 15 14  3  0  0  0  0
 16 18  2  0  0  0  0
 16 19  1  0  0  0  0
 17 16  1  0  0  0  0
 17 22  1  0  0  0  0
 20 16  2  0  0  0  0
 21 17  1  0  0  0  0
 23 17  1  0  0  0  0
M  RAD  2   3   2  19   2
M  END
