Coordinates from ORCA-job p-NO2-Ph-N2-OTf-B3LYPG-aug-cc-pVDZ-scan-d29-49-n200
 OpenBabel01151817083D

 23 22  0  0  1  0  0  0  0  0999 V2000
   -1.2813   -0.2172   -5.6662 C   0  0  0  0  0  0  0  0  0  0  0  0
   -0.3819    0.7917   -5.0277 C   0  0  1  0  0  0  0  0  0  0  0  0
   -0.9030    1.5346   -3.9031 C   0  0  0  0  0  0  0  0  0  0  0  0
   -2.2774    1.6591   -3.7263 C   0  0  0  0  0  0  0  0  0  0  0  0
   -3.0358    0.5601   -4.1347 C   0  0  0  0  0  0  0  0  0  0  0  0
   -2.5323   -0.3165   -5.1507 C   0  0  0  0  0  0  0  0  0  0  0  0
   -0.9977   -0.7330   -6.5809 H   0  0  0  0  0  0  0  0  0  0  0  0
   -0.1676    1.5692   -5.8028 H   0  0  0  0  0  0  0  0  0  0  0  0
   -2.7056    2.3988   -3.0476 H   0  0  0  0  0  0  0  0  0  0  0  0
   -3.9962    0.3241   -3.6778 H   0  0  0  0  0  0  0  0  0  0  0  0
   -3.4645   -1.3242   -5.7182 N   0  0  0  0  0  0  0  0  0  0  0  0
   -4.5104   -1.5205   -5.1079 O   0  0  0  0  0  0  0  0  0  0  0  0
   -3.1277   -1.8965   -6.7468 O   0  0  0  0  0  0  0  0  0  0  0  0
   -0.6499    3.6078   -7.7043 N   0  0  0  0  0  0  0  0  0  0  0  0
   -0.3653    4.4116   -8.4051 N   0  0  0  0  0  0  0  0  0  0  0  0
    2.2898    0.6839   -5.4218 S   0  0  0  0  0  0  0  0  0  0  0  0
    2.6259   -0.8223   -6.5321 C   0  0  0  0  0  0  0  0  0  0  0  0
    1.9701    1.8121   -6.3235 O   0  0  0  0  0  0  0  0  0  0  0  0
    3.3642    0.7266   -4.4248 O   0  0  0  0  0  0  0  0  0  0  0  0
    0.9179    0.1493   -4.6841 O   0  0  0  0  0  0  0  0  0  0  0  0
    1.5913   -0.9936   -7.3693 F   0  0  0  0  0  0  0  0  0  0  0  0
    3.7342   -0.5894   -7.2364 F   0  0  0  0  0  0  0  0  0  0  0  0
    2.7823   -1.9145   -5.7859 F   0  0  0  0  0  0  0  0  0  0  0  0
  1  6  2  0  0  0  0
  1  2  1  0  0  0  0
  2  8  1  6  0  0  0
  2 20  1  0  0  0  0
  2  3  1  0  0  0  0
  3  4  1  0  0  0  0
  4  9  1  0  0  0  0
  5  4  1  0  0  0  0
  5 10  1  0  0  0  0
  6  5  1  0  0  0  0
  7  1  1  0  0  0  0
 11  6  1  0  0  0  0
 11 12  2  0  0  0  0
 13 11  2  0  0  0  0
 15 14  3  0  0  0  0
 16 20  1  0  0  0  0
 16 19  2  0  0  0  0
 17 23  1  0  0  0  0
 17 16  1  0  0  0  0
 18 16  2  0  0  0  0
 21 17  1  0  0  0  0
 22 17  1  0  0  0  0
M  RAD  3   3   3   4   2   5   2
M  END
