Coordinates from ORCA-job p-NO2-Ph-N2-OTf-B3LYPG-aug-cc-pVDZ-scan-d29-49-n200
 OpenBabel01151817083D

 23 22  0  0  1  0  0  0  0  0999 V2000
   -1.2921   -0.4232   -5.6731 C   0  0  0  0  0  0  0  0  0  0  0  0
   -0.4404    0.7523   -5.3175 C   0  0  1  0  0  0  0  0  0  0  0  0
   -0.9938    1.7157   -4.3957 C   0  0  0  0  0  0  0  0  0  0  0  0
   -2.3678    1.8173   -4.2207 C   0  0  0  0  0  0  0  0  0  0  0  0
   -3.0657    0.6112   -4.3252 C   0  0  0  0  0  0  0  0  0  0  0  0
   -2.5275   -0.4581   -5.1130 C   0  0  0  0  0  0  0  0  0  0  0  0
   -0.9959   -1.1268   -6.4481 H   0  0  0  0  0  0  0  0  0  0  0  0
   -0.2699    1.3354   -6.2566 H   0  0  0  0  0  0  0  0  0  0  0  0
   -2.8281    2.6800   -3.7362 H   0  0  0  0  0  0  0  0  0  0  0  0
   -4.0012    0.4418   -3.7932 H   0  0  0  0  0  0  0  0  0  0  0  0
   -3.4101   -1.6196   -5.3944 N   0  0  0  0  0  0  0  0  0  0  0  0
   -4.4318   -1.7177   -4.7227 O   0  0  0  0  0  0  0  0  0  0  0  0
   -3.0597   -2.4028   -6.2677 O   0  0  0  0  0  0  0  0  0  0  0  0
   -0.5232    4.5702   -6.9583 N   0  0  0  0  0  0  0  0  0  0  0  0
   -0.0127    5.5489   -6.9811 N   0  0  0  0  0  0  0  0  0  0  0  0
    2.2249    0.6819   -5.7459 S   0  0  0  0  0  0  0  0  0  0  0  0
    2.6406   -1.0406   -6.4354 C   0  0  0  0  0  0  0  0  0  0  0  0
    1.8232    1.5164   -6.9001 O   0  0  0  0  0  0  0  0  0  0  0  0
    3.3069    1.0462   -4.8255 O   0  0  0  0  0  0  0  0  0  0  0  0
    0.8964    0.2807   -4.8570 O   0  0  0  0  0  0  0  0  0  0  0  0
    1.6101   -1.4823   -7.1717 F   0  0  0  0  0  0  0  0  0  0  0  0
    3.7254   -0.9369   -7.2042 F   0  0  0  0  0  0  0  0  0  0  0  0
    2.8715   -1.8889   -5.4348 F   0  0  0  0  0  0  0  0  0  0  0  0
  1  2  1  0  0  0  0
  1  6  2  0  0  0  0
  2  8  1  6  0  0  0
  2 20  1  0  0  0  0
  2  3  1  0  0  0  0
  3  4  1  0  0  0  0
  4  9  1  0  0  0  0
  5  4  1  0  0  0  0
  5 10  1  0  0  0  0
  6  5  1  0  0  0  0
  7  1  1  0  0  0  0
 11  6  1  0  0  0  0
 11 12  2  0  0  0  0
 13 11  2  0  0  0  0
 15 14  3  0  0  0  0
 16 20  1  0  0  0  0
 16 19  2  0  0  0  0
 17 16  1  0  0  0  0
 17 23  1  0  0  0  0
 18 16  2  0  0  0  0
 21 17  1  0  0  0  0
 22 17  1  0  0  0  0
M  RAD  3   3   3   4   2   5   2
M  END
