Coordinates from ORCA-job p-NO2-Ph-N2-OTf-B3LYPG-aug-cc-pVDZ-scan-d09-29-n200
 OpenBabel01151817083D

 23 22  0  0  0  0  0  0  0  0999 V2000
   -2.3808   -0.6659   -6.1792 C   0  0  0  0  0  0  0  0  0  0  0  0
   -1.0887   -0.2791   -6.5257 C   0  0  0  0  0  0  0  0  0  0  0  0
   -0.4074    0.6235   -5.7048 C   0  0  0  0  0  0  0  0  0  0  0  0
   -0.9400    1.0598   -4.4888 C   0  0  0  0  0  0  0  0  0  0  0  0
   -2.2320    0.6750   -4.1395 C   0  0  0  0  0  0  0  0  0  0  0  0
   -2.9377   -0.1710   -4.9979 C   0  0  0  0  0  0  0  0  0  0  0  0
   -2.9549   -1.3472   -6.8017 H   0  0  0  0  0  0  0  0  0  0  0  0
   -0.6158   -0.6473   -7.4335 H   0  0  0  0  0  0  0  0  0  0  0  0
   -0.3538    1.7115   -3.8446 H   0  0  0  0  0  0  0  0  0  0  0  0
   -2.6931    1.0109   -3.2144 H   0  0  0  0  0  0  0  0  0  0  0  0
   -4.3091   -0.5781   -4.6302 N   0  0  0  0  0  0  0  0  0  0  0  0
   -4.7709   -0.1392   -3.5805 O   0  0  0  0  0  0  0  0  0  0  0  0
   -4.9033   -1.3325   -5.3955 O   0  0  0  0  0  0  0  0  0  0  0  0
   -0.9530    2.5059   -6.9028 N   0  0  0  0  0  0  0  0  0  0  0  0
   -1.9080    3.0018   -7.1589 N   0  0  0  0  0  0  0  0  0  0  0  0
    2.1224   -0.0261   -5.4654 S   0  0  0  0  0  0  0  0  0  0  0  0
    3.5075    1.0211   -6.2524 C   0  0  0  0  0  0  0  0  0  0  0  0
    0.9081    0.9847   -6.0379 O   0  0  0  0  0  0  0  0  0  0  0  0
    2.2246    0.0803   -4.0009 O   0  0  0  0  0  0  0  0  0  0  0  0
    2.0669   -1.3272   -6.1514 O   0  0  0  0  0  0  0  0  0  0  0  0
    3.3511    1.0595   -7.5740 F   0  0  0  0  0  0  0  0  0  0  0  0
    3.4843    2.2540   -5.7503 F   0  0  0  0  0  0  0  0  0  0  0  0
    4.6626    0.4267   -5.9475 F   0  0  0  0  0  0  0  0  0  0  0  0
  1  6  1  0  0  0  0
  2  1  2  0  0  0  0
  2  3  1  0  0  0  0
  3  4  2  0  0  0  0
  4  5  1  0  0  0  0
  4  9  1  0  0  0  0
  5 10  1  0  0  0  0
  6 11  1  0  0  0  0
  6  5  2  0  0  0  0
  7  1  1  0  0  0  0
  8  2  1  0  0  0  0
 11 12  2  0  0  0  0
 13 11  2  0  0  0  0
 15 14  3  0  0  0  0
 16 19  2  0  0  0  0
 17 23  1  0  0  0  0
 17 22  1  0  0  0  0
 17 16  1  0  0  0  0
 18  3  1  0  0  0  0
 18 16  1  0  0  0  0
 20 16  2  0  0  0  0
 21 17  1  0  0  0  0
M  END
