Coordinates from ORCA-job p-NO2-Ph-N2-OTf-B3LYPG-aug-cc-pVDZ-scan-d29-49-n200
 OpenBabel01151817083D

 23 22  0  0  1  0  0  0  0  0999 V2000
   -1.2906   -0.2218   -5.6582 C   0  0  0  0  0  0  0  0  0  0  0  0
   -0.3935    0.7888   -5.0191 C   0  0  1  0  0  0  0  0  0  0  0  0
   -0.9147    1.5223   -3.8877 C   0  0  0  0  0  0  0  0  0  0  0  0
   -2.2885    1.6380   -3.7030 C   0  0  0  0  0  0  0  0  0  0  0  0
   -3.0416    0.5356   -4.1127 C   0  0  0  0  0  0  0  0  0  0  0  0
   -2.5380   -0.3320   -5.1363 C   0  0  0  0  0  0  0  0  0  0  0  0
   -1.0094   -0.7300   -6.5780 H   0  0  0  0  0  0  0  0  0  0  0  0
   -0.1841    1.5688   -5.7932 H   0  0  0  0  0  0  0  0  0  0  0  0
   -2.7175    2.3711   -3.0177 H   0  0  0  0  0  0  0  0  0  0  0  0
   -3.9970    0.2899   -3.6506 H   0  0  0  0  0  0  0  0  0  0  0  0
   -3.4670   -1.3425   -5.7042 N   0  0  0  0  0  0  0  0  0  0  0  0
   -4.5088   -1.5479   -5.0900 O   0  0  0  0  0  0  0  0  0  0  0  0
   -3.1337   -1.9046   -6.7396 O   0  0  0  0  0  0  0  0  0  0  0  0
   -0.5734    3.6805   -7.7963 N   0  0  0  0  0  0  0  0  0  0  0  0
   -0.2499    4.4716   -8.4948 N   0  0  0  0  0  0  0  0  0  0  0  0
    2.2781    0.6907   -5.4230 S   0  0  0  0  0  0  0  0  0  0  0  0
    2.6150   -0.8135   -6.5358 C   0  0  0  0  0  0  0  0  0  0  0  0
    1.9523    1.8187   -6.3226 O   0  0  0  0  0  0  0  0  0  0  0  0
    3.3554    0.7355   -4.4292 O   0  0  0  0  0  0  0  0  0  0  0  0
    0.9102    0.1512   -4.6812 O   0  0  0  0  0  0  0  0  0  0  0  0
    1.5783   -0.9869   -7.3699 F   0  0  0  0  0  0  0  0  0  0  0  0
    3.7204   -0.5765   -7.2434 F   0  0  0  0  0  0  0  0  0  0  0  0
    2.7770   -1.9060   -5.7913 F   0  0  0  0  0  0  0  0  0  0  0  0
  1  6  2  0  0  0  0
  1  2  1  0  0  0  0
  2  8  1  6  0  0  0
  2 20  1  0  0  0  0
  2  3  1  0  0  0  0
  3  4  1  0  0  0  0
  4  9  1  0  0  0  0
  5  4  1  0  0  0  0
  5 10  1  0  0  0  0
  6  5  1  0  0  0  0
  7  1  1  0  0  0  0
 11  6  1  0  0  0  0
 11 12  2  0  0  0  0
 13 11  2  0  0  0  0
 15 14  3  0  0  0  0
 16 20  1  0  0  0  0
 16 19  2  0  0  0  0
 17 23  1  0  0  0  0
 17 16  1  0  0  0  0
 18 16  2  0  0  0  0
 21 17  1  0  0  0  0
 22 17  1  0  0  0  0
M  RAD  3   3   3   4   2   5   2
M  END
