Coordinates from ORCA-job p-NO2-Ph-N2-OTf-B3LYPG-aug-cc-pVDZ-scan-d29-49-n200
 OpenBabel01151817083D

 23 22  0  0  1  0  0  0  0  0999 V2000
   -1.2815   -0.4418   -5.6961 C   0  0  0  0  0  0  0  0  0  0  0  0
   -0.4416    0.7745   -5.4745 C   0  0  1  0  0  0  0  0  0  0  0  0
   -1.0103    1.8253   -4.6631 C   0  0  0  0  0  0  0  0  0  0  0  0
   -2.3822    1.9288   -4.4846 C   0  0  0  0  0  0  0  0  0  0  0  0
   -3.0570    0.7056   -4.4431 C   0  0  0  0  0  0  0  0  0  0  0  0
   -2.5100   -0.4335   -5.1196 C   0  0  0  0  0  0  0  0  0  0  0  0
   -0.9856   -1.2171   -6.3995 H   0  0  0  0  0  0  0  0  0  0  0  0
   -0.2662    1.2490   -6.4698 H   0  0  0  0  0  0  0  0  0  0  0  0
   -2.8500    2.8342   -4.0944 H   0  0  0  0  0  0  0  0  0  0  0  0
   -3.9786    0.5783   -3.8765 H   0  0  0  0  0  0  0  0  0  0  0  0
   -3.3787   -1.6295   -5.2661 N   0  0  0  0  0  0  0  0  0  0  0  0
   -4.3900   -1.6713   -4.5729 O   0  0  0  0  0  0  0  0  0  0  0  0
   -3.0282   -2.4949   -6.0582 O   0  0  0  0  0  0  0  0  0  0  0  0
   -0.6176    4.3946   -6.4270 N   0  0  0  0  0  0  0  0  0  0  0  0
   -0.1394    5.3766   -6.2644 N   0  0  0  0  0  0  0  0  0  0  0  0
    2.2318    0.6975   -5.8581 S   0  0  0  0  0  0  0  0  0  0  0  0
    2.6579   -1.0733   -6.4037 C   0  0  0  0  0  0  0  0  0  0  0  0
    1.8412    1.4361   -7.0792 O   0  0  0  0  0  0  0  0  0  0  0  0
    3.3035    1.1366   -4.9584 O   0  0  0  0  0  0  0  0  0  0  0  0
    0.8961    0.3676   -4.9521 O   0  0  0  0  0  0  0  0  0  0  0  0
    1.6339   -1.5762   -7.1095 F   0  0  0  0  0  0  0  0  0  0  0  0
    3.7480   -1.0283   -7.1707 F   0  0  0  0  0  0  0  0  0  0  0  0
    2.8837   -1.8377   -5.3366 F   0  0  0  0  0  0  0  0  0  0  0  0
  1  2  1  0  0  0  0
  1  6  2  0  0  0  0
  2  8  1  6  0  0  0
  2 20  1  0  0  0  0
  2  3  1  0  0  0  0
  3  4  1  0  0  0  0
  4  5  1  0  0  0  0
  4  9  1  0  0  0  0
  5 10  1  0  0  0  0
  6  5  1  0  0  0  0
  7  1  1  0  0  0  0
 11  6  1  0  0  0  0
 11 12  2  0  0  0  0
 13 11  2  0  0  0  0
 14 15  3  0  0  0  0
 16 19  2  0  0  0  0
 16 20  1  0  0  0  0
 17 16  1  0  0  0  0
 17 23  1  0  0  0  0
 18 16  2  0  0  0  0
 21 17  1  0  0  0  0
 22 17  1  0  0  0  0
M  RAD  3   3   3   4   2   5   2
M  END
