Coordinates from ORCA-job p-NO2-Ph-N2-OTf-B3LYPG-aug-cc-pVDZ-scan-d29-49-n200
 OpenBabel01151817083D

 23 22  0  0  1  0  0  0  0  0999 V2000
   -1.2920   -0.4250   -5.6733 C   0  0  0  0  0  0  0  0  0  0  0  0
   -0.4404    0.7519   -5.3223 C   0  0  1  0  0  0  0  0  0  0  0  0
   -0.9943    1.7186   -4.4045 C   0  0  0  0  0  0  0  0  0  0  0  0
   -2.3682    1.8215   -4.2306 C   0  0  0  0  0  0  0  0  0  0  0  0
   -3.0662    0.6151   -4.3306 C   0  0  0  0  0  0  0  0  0  0  0  0
   -2.5277   -0.4576   -5.1137 C   0  0  0  0  0  0  0  0  0  0  0  0
   -0.9955   -1.1320   -6.4451 H   0  0  0  0  0  0  0  0  0  0  0  0
   -0.2700    1.3316   -6.2635 H   0  0  0  0  0  0  0  0  0  0  0  0
   -2.8285    2.6864   -3.7502 H   0  0  0  0  0  0  0  0  0  0  0  0
   -4.0020    0.4480   -3.7985 H   0  0  0  0  0  0  0  0  0  0  0  0
   -3.4102   -1.6201   -5.3907 N   0  0  0  0  0  0  0  0  0  0  0  0
   -4.4295   -1.7183   -4.7154 O   0  0  0  0  0  0  0  0  0  0  0  0
   -3.0568   -2.4099   -6.2569 O   0  0  0  0  0  0  0  0  0  0  0  0
   -0.5259    4.5703   -6.9402 N   0  0  0  0  0  0  0  0  0  0  0  0
   -0.0160    5.5495   -6.9559 N   0  0  0  0  0  0  0  0  0  0  0  0
    2.2252    0.6819   -5.7494 S   0  0  0  0  0  0  0  0  0  0  0  0
    2.6413   -1.0420   -6.4351 C   0  0  0  0  0  0  0  0  0  0  0  0
    1.8237    1.5139   -6.9055 O   0  0  0  0  0  0  0  0  0  0  0  0
    3.3067    1.0483   -4.8293 O   0  0  0  0  0  0  0  0  0  0  0  0
    0.8964    0.2822   -4.8599 O   0  0  0  0  0  0  0  0  0  0  0  0
    1.6108   -1.4855   -7.1705 F   0  0  0  0  0  0  0  0  0  0  0  0
    3.7260   -0.9398   -7.2041 F   0  0  0  0  0  0  0  0  0  0  0  0
    2.8723   -1.8881   -5.4327 F   0  0  0  0  0  0  0  0  0  0  0  0
  1  2  1  0  0  0  0
  1  6  2  0  0  0  0
  2  8  1  6  0  0  0
  2 20  1  0  0  0  0
  2  3  1  0  0  0  0
  3  4  1  0  0  0  0
  4  9  1  0  0  0  0
  5  4  1  0  0  0  0
  5 10  1  0  0  0  0
  6  5  1  0  0  0  0
  7  1  1  0  0  0  0
 11  6  1  0  0  0  0
 11 12  2  0  0  0  0
 13 11  2  0  0  0  0
 15 14  3  0  0  0  0
 16 20  1  0  0  0  0
 16 19  2  0  0  0  0
 17 16  1  0  0  0  0
 17 23  1  0  0  0  0
 18 16  2  0  0  0  0
 21 17  1  0  0  0  0
 22 17  1  0  0  0  0
M  RAD  3   3   3   4   2   5   2
M  END
