Coordinates from ORCA-job p-NO2-Ph-N2-OTf-B3LYPG-aug-cc-pVDZ-scan-d09-29-n200
 OpenBabel01151817083D

 23 22  0  0  0  0  0  0  0  0999 V2000
   -2.3855   -0.6757   -6.1733 C   0  0  0  0  0  0  0  0  0  0  0  0
   -1.0870   -0.3014   -6.5120 C   0  0  0  0  0  0  0  0  0  0  0  0
   -0.3970    0.5804   -5.6771 C   0  0  0  0  0  0  0  0  0  0  0  0
   -0.9381    1.0361   -4.4730 C   0  0  0  0  0  0  0  0  0  0  0  0
   -2.2365    0.6633   -4.1320 C   0  0  0  0  0  0  0  0  0  0  0  0
   -2.9428   -0.1789   -4.9933 C   0  0  0  0  0  0  0  0  0  0  0  0
   -2.9648   -1.3460   -6.8028 H   0  0  0  0  0  0  0  0  0  0  0  0
   -0.6141   -0.6695   -7.4198 H   0  0  0  0  0  0  0  0  0  0  0  0
   -0.3519    1.6867   -3.8277 H   0  0  0  0  0  0  0  0  0  0  0  0
   -2.7028    1.0087   -3.2130 H   0  0  0  0  0  0  0  0  0  0  0  0
   -4.3208   -0.5727   -4.6344 N   0  0  0  0  0  0  0  0  0  0  0  0
   -4.7854   -0.1286   -3.5881 O   0  0  0  0  0  0  0  0  0  0  0  0
   -4.9180   -1.3198   -5.4043 O   0  0  0  0  0  0  0  0  0  0  0  0
   -0.9671    2.5723   -6.9423 N   0  0  0  0  0  0  0  0  0  0  0  0
   -1.9130    3.0802   -7.2057 N   0  0  0  0  0  0  0  0  0  0  0  0
    2.1444   -0.0347   -5.4576 S   0  0  0  0  0  0  0  0  0  0  0  0
    3.5078    1.0289   -6.2603 C   0  0  0  0  0  0  0  0  0  0  0  0
    0.9101    0.9579   -6.0203 O   0  0  0  0  0  0  0  0  0  0  0  0
    2.2585    0.0765   -3.9943 O   0  0  0  0  0  0  0  0  0  0  0  0
    2.0989   -1.3382   -6.1400 O   0  0  0  0  0  0  0  0  0  0  0  0
    3.3380    1.0618   -7.5804 F   0  0  0  0  0  0  0  0  0  0  0  0
    3.4725    2.2626   -5.7610 F   0  0  0  0  0  0  0  0  0  0  0  0
    4.6738    0.4512   -5.9651 F   0  0  0  0  0  0  0  0  0  0  0  0
  1  6  1  0  0  0  0
  2  1  2  0  0  0  0
  2  3  1  0  0  0  0
  3  4  2  0  0  0  0
  4  5  1  0  0  0  0
  4  9  1  0  0  0  0
  5 10  1  0  0  0  0
  6 11  1  0  0  0  0
  6  5  2  0  0  0  0
  7  1  1  0  0  0  0
  8  2  1  0  0  0  0
 11 12  2  0  0  0  0
 13 11  2  0  0  0  0
 15 14  3  0  0  0  0
 16 19  2  0  0  0  0
 17 23  1  0  0  0  0
 17 22  1  0  0  0  0
 17 16  1  0  0  0  0
 18  3  1  0  0  0  0
 18 16  1  0  0  0  0
 20 16  2  0  0  0  0
 21 17  1  0  0  0  0
M  END
