Coordinates from ORCA-job p-NO2-Ph-N2-OTf-B3LYPG-aug-cc-pVDZ-scan-d09-29-n200
 OpenBabel01151817083D

 23 23  0  0  1  0  0  0  0  0999 V2000
   -1.4008   -0.2459   -5.9956 C   0  0  0  0  0  0  0  0  0  0  0  0
   -0.5203    0.9542   -6.0450 C   0  0  1  0  0  0  0  0  0  0  0  0
   -1.1736    2.1853   -5.4483 C   0  0  0  0  0  0  0  0  0  0  0  0
   -2.2681    2.0245   -4.4946 C   0  0  0  0  0  0  0  0  0  0  0  0
   -2.8851    0.8294   -4.3392 C   0  0  0  0  0  0  0  0  0  0  0  0
   -2.4590   -0.2802   -5.1601 C   0  0  0  0  0  0  0  0  0  0  0  0
   -1.1471   -1.1071   -6.6076 H   0  0  0  0  0  0  0  0  0  0  0  0
   -0.1385    1.1594   -7.0494 H   0  0  0  0  0  0  0  0  0  0  0  0
   -2.5793    2.9024   -3.9295 H   0  0  0  0  0  0  0  0  0  0  0  0
   -3.7065    0.6930   -3.6431 H   0  0  0  0  0  0  0  0  0  0  0  0
   -3.2591   -1.5333   -5.0956 N   0  0  0  0  0  0  0  0  0  0  0  0
   -4.1716   -1.5672   -4.2760 O   0  0  0  0  0  0  0  0  0  0  0  0
   -2.9383   -2.4612   -5.8290 O   0  0  0  0  0  0  0  0  0  0  0  0
   -0.7654    3.2149   -5.7233 N   0  0  0  0  0  0  0  0  0  0  0  0
   -0.3480    4.2469   -6.0037 N   0  0  0  0  0  0  0  0  0  0  0  0
    2.2076    0.7993   -5.8273 S   0  0  0  0  0  0  0  0  0  0  0  0
    2.5600   -0.9991   -6.3362 C   0  0  0  0  0  0  0  0  0  0  0  0
    2.1451    1.5905   -7.0736 O   0  0  0  0  0  0  0  0  0  0  0  0
    3.1084    1.1190   -4.7138 O   0  0  0  0  0  0  0  0  0  0  0  0
    0.6964    0.6116   -5.1978 O   0  0  0  0  0  0  0  0  0  0  0  0
    1.6294   -1.3956   -7.2178 F   0  0  0  0  0  0  0  0  0  0  0  0
    3.7644   -1.0493   -6.9056 F   0  0  0  0  0  0  0  0  0  0  0  0
    2.5284   -1.7905   -5.2660 F   0  0  0  0  0  0  0  0  0  0  0  0
  1  6  2  0  0  0  0
  2  8  1  6  0  0  0
  2  1  1  0  0  0  0
  2  3  1  0  0  0  0
  2 20  1  0  0  0  0
  3  4  2  0  0  0  0
  4  5  1  0  0  0  0
  4  9  1  0  0  0  0
  5 10  1  0  0  0  0
  6 11  1  0  0  0  0
  6  5  1  0  0  0  0
  7  1  1  0  0  0  0
 11 12  2  0  0  0  0
 13 11  2  0  0  0  0
 14  3  1  0  0  0  0
 15 14  1  0  0  0  0
 16 20  1  0  0  0  0
 16 19  2  0  0  0  0
 17 16  1  0  0  0  0
 17 23  1  0  0  0  0
 18 16  2  0  0  0  0
 21 17  1  0  0  0  0
 22 17  1  0  0  0  0
M  RAD  3   5   2  14   2  15   3
M  END
