x2-Ph-N2-OTf-v1.log
 OpenBabel05181815563D
Gaussian home/ubuntu/g09/g09 # opt freq rb3lyp/6-31G(d,p)
 34 33  0  0  0  0  0  0  0  0999 V2000
    4.1549   -0.3728    1.0293 C   0  0  0  0  0  0  0  0  0  0  0  0
    4.3861   -0.2893   -0.3546 C   0  0  0  0  0  0  0  0  0  0  0  0
    5.6436   -0.4872   -0.9597 C   0  0  0  0  0  0  0  0  0  0  0  0
    6.7089   -0.7873   -0.1257 C   0  0  0  0  0  0  0  0  0  0  0  0
    6.5126   -0.8795    1.2598 C   0  0  0  0  0  0  0  0  0  0  0  0
    5.2514   -0.6733    1.8288 C   0  0  0  0  0  0  0  0  0  0  0  0
    3.1577   -0.1876    1.4169 H   0  0  0  0  0  0  0  0  0  0  0  0
    5.7614   -0.4080   -2.0345 H   0  0  0  0  0  0  0  0  0  0  0  0
    7.6930   -0.9483   -0.5513 H   0  0  0  0  0  0  0  0  0  0  0  0
    7.3565   -1.1130    1.9011 H   0  0  0  0  0  0  0  0  0  0  0  0
    5.1194   -0.7439    2.9028 H   0  0  0  0  0  0  0  0  0  0  0  0
    3.3285    0.0026   -1.1971 N   0  0  0  0  0  0  0  0  0  0  0  0
    2.5091    0.2200   -1.9213 N   0  0  0  0  0  0  0  0  0  0  0  0
    0.0931    0.2335    0.3201 S   0  0  0  0  0  0  0  0  0  0  0  0
    0.2860   -0.6170   -0.8922 O   0  0  0  0  0  0  0  0  0  0  0  0
   -0.9509   -0.2758    1.2384 O   0  0  0  0  0  0  0  0  0  0  0  0
    1.3595    0.6810    0.9402 O   0  0  0  0  0  0  0  0  0  0  0  0
   -0.6503    1.7920   -0.3670 C   0  0  0  0  0  0  0  0  0  0  0  0
   -1.8318    1.4947   -0.9537 F   0  0  0  0  0  0  0  0  0  0  0  0
    0.1542    2.3336   -1.2877 F   0  0  0  0  0  0  0  0  0  0  0  0
   -0.8759    2.6839    0.5981 F   0  0  0  0  0  0  0  0  0  0  0  0
   -2.9603    0.1471    1.3587 H   0  0  0  0  0  0  0  0  0  0  0  0
   -3.9211   -0.1470    0.9498 C   0  0  0  0  0  0  0  0  0  0  0  0
   -3.9707   -1.0652   -0.1124 C   0  0  0  0  0  0  0  0  0  0  0  0
   -5.1383    0.3278    1.4237 C   0  0  0  0  0  0  0  0  0  0  0  0
   -5.1654   -1.5204   -0.7069 C   0  0  0  0  0  0  0  0  0  0  0  0
   -6.3414   -0.1003    0.8530 C   0  0  0  0  0  0  0  0  0  0  0  0
   -5.1460    1.0369    2.2440 H   0  0  0  0  0  0  0  0  0  0  0  0
   -6.3562   -1.0191   -0.2060 C   0  0  0  0  0  0  0  0  0  0  0  0
   -5.1422   -2.2320   -1.5245 H   0  0  0  0  0  0  0  0  0  0  0  0
   -7.2814    0.2836    1.2364 H   0  0  0  0  0  0  0  0  0  0  0  0
   -7.2966   -1.3427   -0.6379 H   0  0  0  0  0  0  0  0  0  0  0  0
   -2.7934   -1.5790   -0.6284 N   0  0  0  0  0  0  0  0  0  0  0  0
   -1.9031   -2.0456   -1.1115 N   0  0  0  0  0  0  0  0  0  0  0  0
  1  7  1  0  0  0  0
  1  6  2  0  0  0  0
  2  1  1  0  0  0  0
  3  2  2  0  0  0  0
  3  4  1  0  0  0  0
  4  5  2  0  0  0  0
  5  6  1  0  0  0  0
  5 10  1  0  0  0  0
  6 11  1  0  0  0  0
  8  3  1  0  0  0  0
  9  4  1  0  0  0  0
 12  2  1  0  0  0  0
 13 12  1  0  0  0  0
 14 17  2  0  0  0  0
 14 16  1  0  0  0  0
 15 14  2  0  0  0  0
 18 14  1  0  0  0  0
 18 21  1  0  0  0  0
 19 18  1  0  0  0  0
 20 18  1  0  0  0  0
 23 22  1  0  0  0  0
 23 25  1  0  0  0  0
 24 23  2  0  0  0  0
 25 28  1  0  0  0  0
 26 29  2  0  0  0  0
 26 24  1  0  0  0  0
 27 31  1  0  0  0  0
 27 25  2  0  0  0  0
 29 27  1  0  0  0  0
 30 26  1  0  0  0  0
 32 29  1  0  0  0  0
 33 24  1  0  0  0  0
 34 33  1  0  0  0  0
M  RAD  5  12   2  13   3  16   2  33   2  34   3
M  END
