Coordinates from ORCA-job Ph-N2-BF4-B3LYPG-6-31G_dp-scan-d09-49-n400
 OpenBabel08281821203D

 18 17  0  0  0  0  0  0  0  0999 V2000
   -1.0891    0.0949    0.8786 C   0  0  0  0  0  0  0  0  0  0  0  0
    0.2142    0.1474    0.3986 C   0  0  0  0  0  0  0  0  0  0  0  0
    0.5359    1.2327   -0.4286 C   0  0  0  0  0  0  0  0  0  0  0  0
   -0.3649    2.2524   -0.7823 C   0  0  0  0  0  0  0  0  0  0  0  0
   -1.6536    2.1678   -0.2742 C   0  0  0  0  0  0  0  0  0  0  0  0
   -2.0119    1.0938    0.5513 C   0  0  0  0  0  0  0  0  0  0  0  0
   -1.3802   -0.7270    1.5238 H   0  0  0  0  0  0  0  0  0  0  0  0
    0.9860   -0.5832    0.6179 H   0  0  0  0  0  0  0  0  0  0  0  0
   -0.0531    3.0728   -1.4188 H   0  0  0  0  0  0  0  0  0  0  0  0
   -2.3769    2.9380   -0.5191 H   0  0  0  0  0  0  0  0  0  0  0  0
    1.8092    1.3252   -0.9751 N   0  0  0  0  0  0  0  0  0  0  0  0
    2.7481    1.4744   -1.5495 N   0  0  0  0  0  0  0  0  0  0  0  0
    3.4996    0.1018    1.2422 B   0  0  0  0  0  0  0  0  0  0  0  0
    4.7651    0.4701    0.8286 F   0  0  0  0  0  0  0  0  0  0  0  0
    3.4768   -0.5857    2.4337 F   0  0  0  0  0  0  0  0  0  0  0  0
    2.6682    1.2701    1.3281 F   0  0  0  0  0  0  0  0  0  0  0  0
    2.8890   -0.7093    0.2059 F   0  0  0  0  0  0  0  0  0  0  0  0
   -3.0220    1.0396    0.9450 H   0  0  0  0  0  0  0  0  0  0  0  0
  1  7  1  0  0  0  0
  2  8  1  0  0  0  0
  2  1  2  0  0  0  0
  3  2  1  0  0  0  0
  4  3  2  0  0  0  0
  4  5  1  0  0  0  0
  5  6  2  0  0  0  0
  6  1  1  0  0  0  0
  6 18  1  0  0  0  0
  9  4  1  0  0  0  0
 10  5  1  0  0  0  0
 11  3  1  0  0  0  0
 12 11  1  0  0  0  0
 13 16  1  0  0  0  0
 13 15  1  0  0  0  0
 14 13  1  0  0  0  0
 17 13  1  0  0  0  0
M  RAD  2  11   2  12   3
M  END
