Coordinates from ORCA-job Ph-N2-BF4-B3LYPG-6-31G_dp-scan-d09-49-n400
 OpenBabel08281821203D

 18 17  0  0  0  0  0  0  0  0999 V2000
   -1.0487    0.0943    0.6673 C   0  0  0  0  0  0  0  0  0  0  0  0
    0.2784    0.3031    0.3050 C   0  0  0  0  0  0  0  0  0  0  0  0
    0.5754    1.4728   -0.4160 C   0  0  0  0  0  0  0  0  0  0  0  0
   -0.4062    2.4114   -0.7693 C   0  0  0  0  0  0  0  0  0  0  0  0
   -1.7231    2.1753   -0.3949 C   0  0  0  0  0  0  0  0  0  0  0  0
   -2.0414    1.0172    0.3224 C   0  0  0  0  0  0  0  0  0  0  0  0
   -1.3061   -0.7972    1.2294 H   0  0  0  0  0  0  0  0  0  0  0  0
    1.0529   -0.3994    0.5826 H   0  0  0  0  0  0  0  0  0  0  0  0
   -0.1218    3.2994   -1.3227 H   0  0  0  0  0  0  0  0  0  0  0  0
   -2.4968    2.8886   -0.6585 H   0  0  0  0  0  0  0  0  0  0  0  0
    1.8772    1.7683   -0.8313 N   0  0  0  0  0  0  0  0  0  0  0  0
    2.9826    1.4484   -0.8766 N   0  0  0  0  0  0  0  0  0  0  0  0
    3.4559   -0.0891    1.4425 B   0  0  0  0  0  0  0  0  0  0  0  0
    3.2122   -0.0740   -0.1510 F   0  0  0  0  0  0  0  0  0  0  0  0
    4.7808   -0.3022    1.5986 F   0  0  0  0  0  0  0  0  0  0  0  0
    3.0005    1.1470    1.8273 F   0  0  0  0  0  0  0  0  0  0  0  0
    2.6386   -1.1224    1.8327 F   0  0  0  0  0  0  0  0  0  0  0  0
   -3.0699    0.8347    0.6184 H   0  0  0  0  0  0  0  0  0  0  0  0
  1  7  1  0  0  0  0
  2  8  1  0  0  0  0
  2  1  2  0  0  0  0
  3  2  1  0  0  0  0
  4  3  2  0  0  0  0
  4  5  1  0  0  0  0
  5  6  2  0  0  0  0
  6 18  1  0  0  0  0
  6  1  1  0  0  0  0
  9  4  1  0  0  0  0
 10  5  1  0  0  0  0
 11  3  1  0  0  0  0
 12 11  2  0  0  0  0
 13 15  1  0  0  0  0
 13 16  1  0  0  0  0
 13 17  1  0  0  0  0
 14 13  1  0  0  0  0
M  RAD  1  12   2
M  END
