Coordinates from ORCA-job Ph-N2-BF4-B3LYPG-6-31G_dp-scan-d09-49-n400
 OpenBabel08281821203D

 18 17  0  0  0  0  0  0  0  0999 V2000
   -1.1412    0.1124    0.8606 C   0  0  0  0  0  0  0  0  0  0  0  0
    0.1826    0.1702    0.4387 C   0  0  0  0  0  0  0  0  0  0  0  0
    0.5330    1.2542   -0.3782 C   0  0  0  0  0  0  0  0  0  0  0  0
   -0.3585    2.2652   -0.7789 C   0  0  0  0  0  0  0  0  0  0  0  0
   -1.6675    2.1754   -0.3275 C   0  0  0  0  0  0  0  0  0  0  0  0
   -2.0547    1.1033    0.4879 C   0  0  0  0  0  0  0  0  0  0  0  0
   -1.4567   -0.7092    1.4947 H   0  0  0  0  0  0  0  0  0  0  0  0
    0.9472   -0.5572    0.6935 H   0  0  0  0  0  0  0  0  0  0  0  0
   -0.0241    3.0830   -1.4074 H   0  0  0  0  0  0  0  0  0  0  0  0
   -2.3846    2.9387   -0.6093 H   0  0  0  0  0  0  0  0  0  0  0  0
    1.8298    1.3521   -0.8659 N   0  0  0  0  0  0  0  0  0  0  0  0
    2.8008    1.5076   -1.3846 N   0  0  0  0  0  0  0  0  0  0  0  0
    3.5405    0.0573    1.2196 B   0  0  0  0  0  0  0  0  0  0  0  0
    4.5965    0.5843    0.4744 F   0  0  0  0  0  0  0  0  0  0  0  0
    3.9443   -0.5556    2.3776 F   0  0  0  0  0  0  0  0  0  0  0  0
    2.6137    1.1149    1.4956 F   0  0  0  0  0  0  0  0  0  0  0  0
    2.8207   -0.8650    0.3787 F   0  0  0  0  0  0  0  0  0  0  0  0
   -3.0810    1.0443    0.8366 H   0  0  0  0  0  0  0  0  0  0  0  0
  1  7  1  0  0  0  0
  2  8  1  0  0  0  0
  2  1  2  0  0  0  0
  3  2  1  0  0  0  0
  4  3  2  0  0  0  0
  4  5  1  0  0  0  0
  5  6  2  0  0  0  0
  6 18  1  0  0  0  0
  6  1  1  0  0  0  0
  9  4  1  0  0  0  0
 10  5  1  0  0  0  0
 11  3  1  0  0  0  0
 12 11  1  0  0  0  0
 13 16  1  0  0  0  0
 13 15  1  0  0  0  0
 14 13  1  0  0  0  0
 17 13  1  0  0  0  0
M  RAD  2  11   2  12   3
M  END
