Coordinates from ORCA-job Ph-N2-BF4-B3LYPG-6-31G_dp-scan-d09-49-n400
 OpenBabel08281821203D

 18 17  0  0  0  0  0  0  0  0999 V2000
   -1.1152    0.1222    0.8227 C   0  0  0  0  0  0  0  0  0  0  0  0
    0.2151    0.2449    0.4330 C   0  0  0  0  0  0  0  0  0  0  0  0
    0.5287    1.3540   -0.3665 C   0  0  0  0  0  0  0  0  0  0  0  0
   -0.4013    2.3259   -0.7796 C   0  0  0  0  0  0  0  0  0  0  0  0
   -1.7134    2.1706   -0.3583 C   0  0  0  0  0  0  0  0  0  0  0  0
   -2.0662    1.0722    0.4386 C   0  0  0  0  0  0  0  0  0  0  0  0
   -1.4059   -0.7201    1.4412 H   0  0  0  0  0  0  0  0  0  0  0  0
    1.0030   -0.4545    0.7118 H   0  0  0  0  0  0  0  0  0  0  0  0
   -0.0922    3.1629   -1.3959 H   0  0  0  0  0  0  0  0  0  0  0  0
   -2.4600    2.9014   -0.6492 H   0  0  0  0  0  0  0  0  0  0  0  0
    1.8274    1.5105   -0.8305 N   0  0  0  0  0  0  0  0  0  0  0  0
    2.8078    1.6898   -1.3251 N   0  0  0  0  0  0  0  0  0  0  0  0
    3.5571   -0.0654    1.2424 B   0  0  0  0  0  0  0  0  0  0  0  0
    4.4562    0.2816    0.2239 F   0  0  0  0  0  0  0  0  0  0  0  0
    4.1862   -0.3936    2.4155 F   0  0  0  0  0  0  0  0  0  0  0  0
    2.6722    1.0509    1.4415 F   0  0  0  0  0  0  0  0  0  0  0  0
    2.7369   -1.1381    0.7770 F   0  0  0  0  0  0  0  0  0  0  0  0
   -3.0960    0.9608    0.7634 H   0  0  0  0  0  0  0  0  0  0  0  0
  1  7  1  0  0  0  0
  2  8  1  0  0  0  0
  2  1  2  0  0  0  0
  3  2  1  0  0  0  0
  4  3  2  0  0  0  0
  4  5  1  0  0  0  0
  5  6  2  0  0  0  0
  6 18  1  0  0  0  0
  6  1  1  0  0  0  0
  9  4  1  0  0  0  0
 10  5  1  0  0  0  0
 11  3  1  0  0  0  0
 12 11  1  0  0  0  0
 13 16  1  0  0  0  0
 13 15  1  0  0  0  0
 14 13  1  0  0  0  0
 17 13  1  0  0  0  0
M  RAD  2  11   2  12   3
M  END
