Coordinates from ORCA-job Ph-N2-BF4-B3LYPG-6-31G_dp-scan-d09-49-n400
 OpenBabel08281821203D

 18 17  0  0  0  0  0  0  0  0999 V2000
   -1.1391    0.1123    0.8621 C   0  0  0  0  0  0  0  0  0  0  0  0
    0.1839    0.1700    0.4378 C   0  0  0  0  0  0  0  0  0  0  0  0
    0.5329    1.2538   -0.3801 C   0  0  0  0  0  0  0  0  0  0  0  0
   -0.3591    2.2646   -0.7799 C   0  0  0  0  0  0  0  0  0  0  0  0
   -1.6673    2.1749   -0.3262 C   0  0  0  0  0  0  0  0  0  0  0  0
   -2.0531    1.1032    0.4905 C   0  0  0  0  0  0  0  0  0  0  0  0
   -1.4535   -0.7089    1.4973 H   0  0  0  0  0  0  0  0  0  0  0  0
    0.9497   -0.5566    0.6910 H   0  0  0  0  0  0  0  0  0  0  0  0
   -0.0258    3.0821   -1.4093 H   0  0  0  0  0  0  0  0  0  0  0  0
   -2.3850    2.9380   -0.6071 H   0  0  0  0  0  0  0  0  0  0  0  0
    1.8291    1.3513   -0.8696 N   0  0  0  0  0  0  0  0  0  0  0  0
    2.7989    1.5073   -1.3903 N   0  0  0  0  0  0  0  0  0  0  0  0
    3.5393    0.0582    1.2202 B   0  0  0  0  0  0  0  0  0  0  0  0
    4.6045    0.5826    0.4881 F   0  0  0  0  0  0  0  0  0  0  0  0
    3.9270   -0.5607    2.3807 F   0  0  0  0  0  0  0  0  0  0  0  0
    2.6135    1.1185    1.4902 F   0  0  0  0  0  0  0  0  0  0  0  0
    2.8234   -0.8589    0.3695 F   0  0  0  0  0  0  0  0  0  0  0  0
   -3.0788    1.0445    0.8411 H   0  0  0  0  0  0  0  0  0  0  0  0
  1  7  1  0  0  0  0
  2  8  1  0  0  0  0
  2  1  2  0  0  0  0
  3  2  1  0  0  0  0
  4  3  2  0  0  0  0
  4  5  1  0  0  0  0
  5  6  2  0  0  0  0
  6 18  1  0  0  0  0
  6  1  1  0  0  0  0
  9  4  1  0  0  0  0
 10  5  1  0  0  0  0
 11  3  1  0  0  0  0
 12 11  1  0  0  0  0
 13 16  1  0  0  0  0
 13 15  1  0  0  0  0
 14 13  1  0  0  0  0
 17 13  1  0  0  0  0
M  RAD  2  11   2  12   3
M  END
