Coordinates from ORCA-job Ph-N2-BF4-B3LYPG-6-31G_dp-scan-d09-49-n400
 OpenBabel08281821203D

 18 17  0  0  0  0  0  0  0  0999 V2000
   -1.0913    0.0953    0.8777 C   0  0  0  0  0  0  0  0  0  0  0  0
    0.2126    0.1472    0.3993 C   0  0  0  0  0  0  0  0  0  0  0  0
    0.5357    1.2325   -0.4274 C   0  0  0  0  0  0  0  0  0  0  0  0
   -0.3642    2.2526   -0.7822 C   0  0  0  0  0  0  0  0  0  0  0  0
   -1.6535    2.1686   -0.2757 C   0  0  0  0  0  0  0  0  0  0  0  0
   -2.0133    1.0947    0.5494 C   0  0  0  0  0  0  0  0  0  0  0  0
   -1.3837   -0.7265    1.5224 H   0  0  0  0  0  0  0  0  0  0  0  0
    0.9839   -0.5837    0.6193 H   0  0  0  0  0  0  0  0  0  0  0  0
   -0.0512    3.0729   -1.4183 H   0  0  0  0  0  0  0  0  0  0  0  0
   -2.3762    2.9390   -0.5214 H   0  0  0  0  0  0  0  0  0  0  0  0
    1.8100    1.3246   -0.9719 N   0  0  0  0  0  0  0  0  0  0  0  0
    2.7499    1.4739   -1.5445 N   0  0  0  0  0  0  0  0  0  0  0  0
    3.5010    0.1012    1.2417 B   0  0  0  0  0  0  0  0  0  0  0  0
    4.7600    0.4788    0.8157 F   0  0  0  0  0  0  0  0  0  0  0  0
    3.4952   -0.5860    2.4334 F   0  0  0  0  0  0  0  0  0  0  0  0
    2.6627    1.2639    1.3353 F   0  0  0  0  0  0  0  0  0  0  0  0
    2.8868   -0.7140    0.2111 F   0  0  0  0  0  0  0  0  0  0  0  0
   -3.0238    1.0410    0.9419 H   0  0  0  0  0  0  0  0  0  0  0  0
  1  7  1  0  0  0  0
  2  8  1  0  0  0  0
  2  1  2  0  0  0  0
  3  2  1  0  0  0  0
  4  3  2  0  0  0  0
  4  5  1  0  0  0  0
  5  6  2  0  0  0  0
  6  1  1  0  0  0  0
  6 18  1  0  0  0  0
  9  4  1  0  0  0  0
 10  5  1  0  0  0  0
 11  3  1  0  0  0  0
 12 11  1  0  0  0  0
 13 16  1  0  0  0  0
 13 15  1  0  0  0  0
 14 13  1  0  0  0  0
 17 13  1  0  0  0  0
M  RAD  2  11   2  12   3
M  END
