Coordinates from ORCA-job Ph-N2-BF4-B3LYPG-6-31G_dp-scan-d09-49-n400
 OpenBabel08281821203D

 18 17  0  0  0  0  0  0  0  0999 V2000
   -0.9825    0.2239    1.0508 C   0  0  0  0  0  0  0  0  0  0  0  0
    0.3248    0.3606    0.5935 C   0  0  0  0  0  0  0  0  0  0  0  0
    0.5456    1.3593   -0.3697 C   0  0  0  0  0  0  0  0  0  0  0  0
   -0.4632    2.1998   -0.8783 C   0  0  0  0  0  0  0  0  0  0  0  0
   -1.7511    2.0281   -0.3941 C   0  0  0  0  0  0  0  0  0  0  0  0
   -2.0074    1.0422    0.5680 C   0  0  0  0  0  0  0  0  0  0  0  0
   -1.1952   -0.5320    1.7992 H   0  0  0  0  0  0  0  0  0  0  0  0
    1.1340   -0.2607    0.9624 H   0  0  0  0  0  0  0  0  0  0  0  0
   -0.2286    2.9550   -1.6205 H   0  0  0  0  0  0  0  0  0  0  0  0
   -2.5519    2.6593   -0.7630 H   0  0  0  0  0  0  0  0  0  0  0  0
    1.8134    1.5637   -0.8924 N   0  0  0  0  0  0  0  0  0  0  0  0
    2.7960    1.7709   -1.3643 N   0  0  0  0  0  0  0  0  0  0  0  0
    3.4858   -0.0548    1.0990 B   0  0  0  0  0  0  0  0  0  0  0  0
    4.8520   -0.1077    1.1576 F   0  0  0  0  0  0  0  0  0  0  0  0
    2.8310   -0.8413    2.0564 F   0  0  0  0  0  0  0  0  0  0  0  0
    3.0283    1.2920    1.2466 F   0  0  0  0  0  0  0  0  0  0  0  0
    3.0272   -0.4966   -0.1893 F   0  0  0  0  0  0  0  0  0  0  0  0
   -3.0176    0.9145    0.9442 H   0  0  0  0  0  0  0  0  0  0  0  0
  1  7  1  0  0  0  0
  2  8  1  0  0  0  0
  2  1  1  0  0  0  0
  3  2  2  0  0  0  0
  4  5  2  0  0  0  0
  4  3  1  0  0  0  0
  5  6  1  0  0  0  0
  6 18  1  0  0  0  0
  6  1  2  0  0  0  0
  9  4  1  0  0  0  0
 10  5  1  0  0  0  0
 11  3  1  0  0  0  0
 12 11  1  0  0  0  0
 13 14  1  0  0  0  0
 13 16  1  0  0  0  0
 13 15  1  0  0  0  0
 17 13  1  0  0  0  0
M  RAD  2  11   2  12   3
M  END
