Coordinates from ORCA-job Ph-N2-BF4-B3LYPG-6-31G_dp-scan-d09-49-n400
 OpenBabel08281821203D

 18 17  0  0  0  0  0  0  0  0999 V2000
   -1.1452    0.1408    0.6418 C   0  0  0  0  0  0  0  0  0  0  0  0
    0.1902    0.4203    0.3649 C   0  0  0  0  0  0  0  0  0  0  0  0
    0.4909    1.5745   -0.3844 C   0  0  0  0  0  0  0  0  0  0  0  0
   -0.5306    2.4272   -0.8341 C   0  0  0  0  0  0  0  0  0  0  0  0
   -1.8593    2.1218   -0.5598 C   0  0  0  0  0  0  0  0  0  0  0  0
   -2.1661    0.9770    0.1799 C   0  0  0  0  0  0  0  0  0  0  0  0
   -1.3898   -0.7426    1.2233 H   0  0  0  0  0  0  0  0  0  0  0  0
    0.9772   -0.2214    0.7291 H   0  0  0  0  0  0  0  0  0  0  0  0
   -0.2581    3.3148   -1.3946 H   0  0  0  0  0  0  0  0  0  0  0  0
   -2.6497    2.7753   -0.9139 H   0  0  0  0  0  0  0  0  0  0  0  0
    1.7870    2.0125   -0.7275 N   0  0  0  0  0  0  0  0  0  0  0  0
    2.8849    1.5568   -0.6741 N   0  0  0  0  0  0  0  0  0  0  0  0
    3.8681   -0.2697    1.6909 B   0  0  0  0  0  0  0  0  0  0  0  0
    2.9135    0.1370   -0.1279 F   0  0  0  0  0  0  0  0  0  0  0  0
    4.9177   -0.8910    1.1753 F   0  0  0  0  0  0  0  0  0  0  0  0
    3.9735    0.9970    2.0771 F   0  0  0  0  0  0  0  0  0  0  0  0
    2.8378   -0.9927    2.1366 F   0  0  0  0  0  0  0  0  0  0  0  0
   -3.2016    0.7382    0.4034 H   0  0  0  0  0  0  0  0  0  0  0  0
  1  7  1  0  0  0  0
  2  1  1  0  0  0  0
  2  8  1  0  0  0  0
  3  2  2  0  0  0  0
  4  5  2  0  0  0  0
  4  3  1  0  0  0  0
  5  6  1  0  0  0  0
  6 18  1  0  0  0  0
  6  1  2  0  0  0  0
  9  4  1  0  0  0  0
 10  5  1  0  0  0  0
 11 12  1  0  0  0  0
 11  3  1  0  0  0  0
 12 14  1  0  0  0  0
 13 16  1  0  0  0  0
 13 17  1  0  0  0  0
 15 13  1  0  0  0  0
M  RAD  2  11   2  12   2
M  END
