Coordinates from ORCA-job Ph-N2-BF4-B3LYPG-6-31G_dp-scan-d09-49-n400
 OpenBabel08281821203D

 18 17  0  0  0  0  0  0  0  0999 V2000
   -1.0527    0.0978    0.9000 C   0  0  0  0  0  0  0  0  0  0  0  0
    0.2419    0.1573    0.3976 C   0  0  0  0  0  0  0  0  0  0  0  0
    0.5400    1.2382   -0.4446 C   0  0  0  0  0  0  0  0  0  0  0  0
   -0.3769    2.2457   -0.7924 C   0  0  0  0  0  0  0  0  0  0  0  0
   -1.6566    2.1534   -0.2635 C   0  0  0  0  0  0  0  0  0  0  0  0
   -1.9907    1.0842    0.5781 C   0  0  0  0  0  0  0  0  0  0  0  0
   -1.3245   -0.7202    1.5582 H   0  0  0  0  0  0  0  0  0  0  0  0
    1.0208   -0.5665    0.6131 H   0  0  0  0  0  0  0  0  0  0  0  0
   -0.0834    3.0632   -1.4413 H   0  0  0  0  0  0  0  0  0  0  0  0
   -2.3913    2.9140   -0.5043 H   0  0  0  0  0  0  0  0  0  0  0  0
    1.8033    1.3418   -1.0111 N   0  0  0  0  0  0  0  0  0  0  0  0
    2.7356    1.4947   -1.5945 N   0  0  0  0  0  0  0  0  0  0  0  0
    3.4731    0.1024    1.2402 B   0  0  0  0  0  0  0  0  0  0  0  0
    4.8039    0.3602    0.9998 F   0  0  0  0  0  0  0  0  0  0  0  0
    3.2328   -0.6003    2.4031 F   0  0  0  0  0  0  0  0  0  0  0  0
    2.7324    1.3320    1.2559 F   0  0  0  0  0  0  0  0  0  0  0  0
    2.9264   -0.6461    0.1229 F   0  0  0  0  0  0  0  0  0  0  0  0
   -2.9937    1.0240    0.9888 H   0  0  0  0  0  0  0  0  0  0  0  0
  1  7  1  0  0  0  0
  2  8  1  0  0  0  0
  2  1  2  0  0  0  0
  3  2  1  0  0  0  0
  4  3  2  0  0  0  0
  4  5  1  0  0  0  0
  5  6  2  0  0  0  0
  6  1  1  0  0  0  0
  6 18  1  0  0  0  0
  9  4  1  0  0  0  0
 10  5  1  0  0  0  0
 11  3  1  0  0  0  0
 12 11  1  0  0  0  0
 13 16  1  0  0  0  0
 13 15  1  0  0  0  0
 14 13  1  0  0  0  0
 17 13  1  0  0  0  0
M  RAD  2  11   2  12   3
M  END
