Coordinates from ORCA-job Ph-N2-BF4-B3LYPG-6-31G_dp-scan-d09-49-n400
 OpenBabel08281821203D

 18 17  0  0  0  0  0  0  0  0999 V2000
   -1.0877    0.0950    0.8787 C   0  0  0  0  0  0  0  0  0  0  0  0
    0.2153    0.1479    0.3979 C   0  0  0  0  0  0  0  0  0  0  0  0
    0.5360    1.2333   -0.4295 C   0  0  0  0  0  0  0  0  0  0  0  0
   -0.3655    2.2527   -0.7826 C   0  0  0  0  0  0  0  0  0  0  0  0
   -1.6538    2.1677   -0.2737 C   0  0  0  0  0  0  0  0  0  0  0  0
   -2.0111    1.0936    0.5520 C   0  0  0  0  0  0  0  0  0  0  0  0
   -1.3782   -0.7270    1.5241 H   0  0  0  0  0  0  0  0  0  0  0  0
    0.9872   -0.5826    0.6171 H   0  0  0  0  0  0  0  0  0  0  0  0
   -0.0543    3.0732   -1.4194 H   0  0  0  0  0  0  0  0  0  0  0  0
   -2.3775    2.9376   -0.5181 H   0  0  0  0  0  0  0  0  0  0  0  0
    1.8087    1.3262   -0.9771 N   0  0  0  0  0  0  0  0  0  0  0  0
    2.7465    1.4760   -1.5531 N   0  0  0  0  0  0  0  0  0  0  0  0
    3.4991    0.1011    1.2431 B   0  0  0  0  0  0  0  0  0  0  0  0
    4.7668    0.4667    0.8338 F   0  0  0  0  0  0  0  0  0  0  0  0
    3.4716   -0.5853    2.4351 F   0  0  0  0  0  0  0  0  0  0  0  0
    2.6686    1.2706    1.3255 F   0  0  0  0  0  0  0  0  0  0  0  0
    2.8896   -0.7095    0.2056 F   0  0  0  0  0  0  0  0  0  0  0  0
   -3.0209    1.0390    0.9464 H   0  0  0  0  0  0  0  0  0  0  0  0
  1  7  1  0  0  0  0
  2  8  1  0  0  0  0
  2  1  2  0  0  0  0
  3  2  1  0  0  0  0
  4  3  2  0  0  0  0
  4  5  1  0  0  0  0
  5  6  2  0  0  0  0
  6  1  1  0  0  0  0
  6 18  1  0  0  0  0
  9  4  1  0  0  0  0
 10  5  1  0  0  0  0
 11  3  1  0  0  0  0
 12 11  1  0  0  0  0
 13 16  1  0  0  0  0
 13 15  1  0  0  0  0
 14 13  1  0  0  0  0
 17 13  1  0  0  0  0
M  RAD  2  11   2  12   3
M  END
