Coordinates from ORCA-job Ph-N2-BF4-B3LYPG-6-31G_dp-scan-d09-49-n400
 OpenBabel08281821203D

 18 17  0  0  0  0  0  0  0  0999 V2000
   -1.1205    0.1056    0.8695 C   0  0  0  0  0  0  0  0  0  0  0  0
    0.1937    0.1550    0.4187 C   0  0  0  0  0  0  0  0  0  0  0  0
    0.5341    1.2378   -0.4042 C   0  0  0  0  0  0  0  0  0  0  0  0
   -0.3580    2.2562   -0.7834 C   0  0  0  0  0  0  0  0  0  0  0  0
   -1.6575    2.1749   -0.3037 C   0  0  0  0  0  0  0  0  0  0  0  0
   -2.0345    1.1044    0.5185 C   0  0  0  0  0  0  0  0  0  0  0  0
   -1.4276   -0.7137    1.5105 H   0  0  0  0  0  0  0  0  0  0  0  0
    0.9602   -0.5753    0.6569 H   0  0  0  0  0  0  0  0  0  0  0  0
   -0.0312    3.0733   -1.4167 H   0  0  0  0  0  0  0  0  0  0  0  0
   -2.3748    2.9443   -0.5679 H   0  0  0  0  0  0  0  0  0  0  0  0
    1.8209    1.3297   -0.9177 N   0  0  0  0  0  0  0  0  0  0  0  0
    2.7770    1.4846   -1.4624 N   0  0  0  0  0  0  0  0  0  0  0  0
    3.5217    0.0809    1.2308 B   0  0  0  0  0  0  0  0  0  0  0  0
    4.6709    0.5796    0.6320 F   0  0  0  0  0  0  0  0  0  0  0  0
    3.7576   -0.5863    2.4076 F   0  0  0  0  0  0  0  0  0  0  0  0
    2.6029    1.1632    1.4397 F   0  0  0  0  0  0  0  0  0  0  0  0
    2.8586   -0.7913    0.2873 F   0  0  0  0  0  0  0  0  0  0  0  0
   -3.0530    1.0531    0.8905 H   0  0  0  0  0  0  0  0  0  0  0  0
  1  7  1  0  0  0  0
  2  8  1  0  0  0  0
  2  1  2  0  0  0  0
  3  2  1  0  0  0  0
  4  3  2  0  0  0  0
  4  5  1  0  0  0  0
  5  6  2  0  0  0  0
  6  1  1  0  0  0  0
  6 18  1  0  0  0  0
  9  4  1  0  0  0  0
 10  5  1  0  0  0  0
 11  3  1  0  0  0  0
 12 11  1  0  0  0  0
 13 16  1  0  0  0  0
 13 15  1  0  0  0  0
 14 13  1  0  0  0  0
 17 13  1  0  0  0  0
M  RAD  2  11   2  12   3
M  END
