Coordinates from ORCA-job Ph-N2-BF4-B3LYPG-6-31G_dp-scan-d09-49-n400
 OpenBabel08281821203D

 18 17  0  0  0  0  0  0  0  0999 V2000
   -1.1629    0.1582    0.6486 C   0  0  0  0  0  0  0  0  0  0  0  0
    0.1726    0.4638    0.3998 C   0  0  0  0  0  0  0  0  0  0  0  0
    0.4698    1.6092   -0.3646 C   0  0  0  0  0  0  0  0  0  0  0  0
   -0.5611    2.4289   -0.8530 C   0  0  0  0  0  0  0  0  0  0  0  0
   -1.8897    2.0968   -0.6102 C   0  0  0  0  0  0  0  0  0  0  0  0
   -2.1907    0.9595    0.1428 C   0  0  0  0  0  0  0  0  0  0  0  0
   -1.4020   -0.7190    1.2417 H   0  0  0  0  0  0  0  0  0  0  0  0
    0.9615   -0.1537    0.7998 H   0  0  0  0  0  0  0  0  0  0  0  0
   -0.2942    3.3140   -1.4201 H   0  0  0  0  0  0  0  0  0  0  0  0
   -2.6847    2.7255   -0.9975 H   0  0  0  0  0  0  0  0  0  0  0  0
    1.7623    2.0833   -0.6827 N   0  0  0  0  0  0  0  0  0  0  0  0
    2.8609    1.6108   -0.6176 N   0  0  0  0  0  0  0  0  0  0  0  0
    3.9645   -0.3362    1.7179 B   0  0  0  0  0  0  0  0  0  0  0  0
    2.8721    0.2158   -0.1192 F   0  0  0  0  0  0  0  0  0  0  0  0
    4.8924   -1.0430    1.0973 F   0  0  0  0  0  0  0  0  0  0  0  0
    4.2098    0.9129    2.0813 F   0  0  0  0  0  0  0  0  0  0  0  0
    2.8861   -0.9509    2.1987 F   0  0  0  0  0  0  0  0  0  0  0  0
   -3.2261    0.7000    0.3429 H   0  0  0  0  0  0  0  0  0  0  0  0
  1  7  1  0  0  0  0
  2  1  1  0  0  0  0
  2  8  1  0  0  0  0
  3  2  2  0  0  0  0
  4  5  2  0  0  0  0
  4  3  1  0  0  0  0
  5  6  1  0  0  0  0
  6 18  1  0  0  0  0
  6  1  2  0  0  0  0
  9  4  1  0  0  0  0
 10  5  1  0  0  0  0
 11 12  1  0  0  0  0
 11  3  1  0  0  0  0
 12 14  1  0  0  0  0
 13 16  1  0  0  0  0
 13 17  1  0  0  0  0
 15 13  1  0  0  0  0
M  RAD  2  11   2  12   2
M  END
