Coordinates from ORCA-job Ph-N2-BF4-B3LYPG-6-31G_dp-scan-d09-49-n400
 OpenBabel08281821203D

 18 17  0  0  0  0  0  0  0  0999 V2000
   -1.0944    0.0962    0.8761 C   0  0  0  0  0  0  0  0  0  0  0  0
    0.2105    0.1474    0.4001 C   0  0  0  0  0  0  0  0  0  0  0  0
    0.5355    1.2327   -0.4258 C   0  0  0  0  0  0  0  0  0  0  0  0
   -0.3633    2.2532   -0.7823 C   0  0  0  0  0  0  0  0  0  0  0  0
   -1.6535    2.1699   -0.2781 C   0  0  0  0  0  0  0  0  0  0  0  0
   -2.0152    1.0961    0.5463 C   0  0  0  0  0  0  0  0  0  0  0  0
   -1.3885   -0.7255    1.5202 H   0  0  0  0  0  0  0  0  0  0  0  0
    0.9808   -0.5840    0.6216 H   0  0  0  0  0  0  0  0  0  0  0  0
   -0.0487    3.0733   -1.4179 H   0  0  0  0  0  0  0  0  0  0  0  0
   -2.3754    2.9407   -0.5252 H   0  0  0  0  0  0  0  0  0  0  0  0
    1.8109    1.3246   -0.9673 N   0  0  0  0  0  0  0  0  0  0  0  0
    2.7519    1.4747   -1.5381 N   0  0  0  0  0  0  0  0  0  0  0  0
    3.5032    0.0992    1.2417 B   0  0  0  0  0  0  0  0  0  0  0  0
    4.7512    0.4927    0.7952 F   0  0  0  0  0  0  0  0  0  0  0  0
    3.5268   -0.5860    2.4339 F   0  0  0  0  0  0  0  0  0  0  0  0
    2.6520    1.2515    1.3472 F   0  0  0  0  0  0  0  0  0  0  0  0
    2.8832   -0.7237    0.2212 F   0  0  0  0  0  0  0  0  0  0  0  0
   -3.0265    1.0430    0.9372 H   0  0  0  0  0  0  0  0  0  0  0  0
  1  7  1  0  0  0  0
  2  8  1  0  0  0  0
  2  1  2  0  0  0  0
  3  2  1  0  0  0  0
  4  3  2  0  0  0  0
  4  5  1  0  0  0  0
  5  6  2  0  0  0  0
  6  1  1  0  0  0  0
  6 18  1  0  0  0  0
  9  4  1  0  0  0  0
 10  5  1  0  0  0  0
 11  3  1  0  0  0  0
 12 11  1  0  0  0  0
 13 16  1  0  0  0  0
 13 15  1  0  0  0  0
 14 13  1  0  0  0  0
 17 13  1  0  0  0  0
M  RAD  2  11   2  12   3
M  END
