Coordinates from ORCA-job Ph-N2-BF4-B3LYPG-6-31G_dp-scan-d09-49-n400
 OpenBabel08281821203D

 18 17  0  0  0  0  0  0  0  0999 V2000
   -1.0320    0.1118    0.9239 C   0  0  0  0  0  0  0  0  0  0  0  0
    0.2600    0.1775    0.4156 C   0  0  0  0  0  0  0  0  0  0  0  0
    0.5423    1.2484   -0.4455 C   0  0  0  0  0  0  0  0  0  0  0  0
   -0.3894    2.2374   -0.8073 C   0  0  0  0  0  0  0  0  0  0  0  0
   -1.6665    2.1380   -0.2737 C   0  0  0  0  0  0  0  0  0  0  0  0
   -1.9840    1.0799    0.5880 C   0  0  0  0  0  0  0  0  0  0  0  0
   -1.2909   -0.6979    1.5975 H   0  0  0  0  0  0  0  0  0  0  0  0
    1.0431   -0.5372    0.6431 H   0  0  0  0  0  0  0  0  0  0  0  0
   -0.1083    3.0472   -1.4712 H   0  0  0  0  0  0  0  0  0  0  0  0
   -2.4118    2.8844   -0.5261 H   0  0  0  0  0  0  0  0  0  0  0  0
    1.8037    1.3657   -1.0124 N   0  0  0  0  0  0  0  0  0  0  0  0
    2.7427    1.5270   -1.5820 N   0  0  0  0  0  0  0  0  0  0  0  0
    3.4622    0.0887    1.2265 B   0  0  0  0  0  0  0  0  0  0  0  0
    4.8136    0.2944    1.0745 F   0  0  0  0  0  0  0  0  0  0  0  0
    3.1180   -0.6410    2.3500 F   0  0  0  0  0  0  0  0  0  0  0  0
    2.7720    1.3458    1.2420 F   0  0  0  0  0  0  0  0  0  0  0  0
    2.9505   -0.6080    0.0601 F   0  0  0  0  0  0  0  0  0  0  0  0
   -2.9847    1.0139    1.0031 H   0  0  0  0  0  0  0  0  0  0  0  0
  1  7  1  0  0  0  0
  2  8  1  0  0  0  0
  2  1  2  0  0  0  0
  3  2  1  0  0  0  0
  4  3  2  0  0  0  0
  4  5  1  0  0  0  0
  5  6  2  0  0  0  0
  6  1  1  0  0  0  0
  6 18  1  0  0  0  0
  9  4  1  0  0  0  0
 10  5  1  0  0  0  0
 11  3  1  0  0  0  0
 12 11  1  0  0  0  0
 13 16  1  0  0  0  0
 13 15  1  0  0  0  0
 14 13  1  0  0  0  0
 17 13  1  0  0  0  0
M  RAD  2  11   2  12   3
M  END
