Coordinates from ORCA-job Ph-N2-BF4-B3LYPG-6-31G_dp-scan-d09-49-n400
 OpenBabel08281821203D

 18 17  0  0  0  0  0  0  0  0999 V2000
   -1.1094    0.0999    0.8712 C   0  0  0  0  0  0  0  0  0  0  0  0
    0.2001    0.1483    0.4075 C   0  0  0  0  0  0  0  0  0  0  0  0
    0.5346    1.2328   -0.4158 C   0  0  0  0  0  0  0  0  0  0  0  0
   -0.3590    2.2546   -0.7821 C   0  0  0  0  0  0  0  0  0  0  0  0
   -1.6538    2.1741   -0.2897 C   0  0  0  0  0  0  0  0  0  0  0  0
   -2.0249    1.1017    0.5324 C   0  0  0  0  0  0  0  0  0  0  0  0
   -1.4115   -0.7207    1.5129 H   0  0  0  0  0  0  0  0  0  0  0  0
    0.9678   -0.5839    0.6360 H   0  0  0  0  0  0  0  0  0  0  0  0
   -0.0367    3.0734   -1.4156 H   0  0  0  0  0  0  0  0  0  0  0  0
   -2.3720    2.9460   -0.5440 H   0  0  0  0  0  0  0  0  0  0  0  0
    1.8159    1.3229   -0.9433 N   0  0  0  0  0  0  0  0  0  0  0  0
    2.7645    1.4743   -1.5014 N   0  0  0  0  0  0  0  0  0  0  0  0
    3.5126    0.0924    1.2370 B   0  0  0  0  0  0  0  0  0  0  0  0
    4.7093    0.5490    0.7080 F   0  0  0  0  0  0  0  0  0  0  0  0
    3.6529   -0.5856    2.4240 F   0  0  0  0  0  0  0  0  0  0  0  0
    2.6182    1.2040    1.3985 F   0  0  0  0  0  0  0  0  0  0  0  0
    2.8718   -0.7584    0.2562 F   0  0  0  0  0  0  0  0  0  0  0  0
   -3.0398    1.0511    0.9142 H   0  0  0  0  0  0  0  0  0  0  0  0
  1  7  1  0  0  0  0
  2  8  1  0  0  0  0
  2  1  2  0  0  0  0
  3  2  1  0  0  0  0
  4  3  2  0  0  0  0
  4  5  1  0  0  0  0
  5  6  2  0  0  0  0
  6  1  1  0  0  0  0
  6 18  1  0  0  0  0
  9  4  1  0  0  0  0
 10  5  1  0  0  0  0
 11  3  1  0  0  0  0
 12 11  1  0  0  0  0
 13 16  1  0  0  0  0
 13 15  1  0  0  0  0
 14 13  1  0  0  0  0
 17 13  1  0  0  0  0
M  RAD  2  11   2  12   3
M  END
