Coordinates from ORCA-job Ph-N2-BF4-B3LYPG-6-31G_dp-scan-d09-49-n400
 OpenBabel08281821203D

 18 17  0  0  0  0  0  0  0  0999 V2000
   -1.0598    0.0949    0.6574 C   0  0  0  0  0  0  0  0  0  0  0  0
    0.2686    0.3042    0.3004 C   0  0  0  0  0  0  0  0  0  0  0  0
    0.5752    1.4740   -0.4181 C   0  0  0  0  0  0  0  0  0  0  0  0
   -0.4088    2.4109   -0.7707 C   0  0  0  0  0  0  0  0  0  0  0  0
   -1.7284    2.1762   -0.4036 C   0  0  0  0  0  0  0  0  0  0  0  0
   -2.0515    1.0179    0.3100 C   0  0  0  0  0  0  0  0  0  0  0  0
   -1.3201   -0.7979    1.2166 H   0  0  0  0  0  0  0  0  0  0  0  0
    1.0386   -0.4013    0.5789 H   0  0  0  0  0  0  0  0  0  0  0  0
   -0.1212    3.2998   -1.3211 H   0  0  0  0  0  0  0  0  0  0  0  0
   -2.4998    2.8909   -0.6700 H   0  0  0  0  0  0  0  0  0  0  0  0
    1.8743    1.7904   -0.8359 N   0  0  0  0  0  0  0  0  0  0  0  0
    2.9752    1.4200   -0.8540 N   0  0  0  0  0  0  0  0  0  0  0  0
    3.4869   -0.0900    1.4876 B   0  0  0  0  0  0  0  0  0  0  0  0
    3.1325   -0.0565   -0.1535 F   0  0  0  0  0  0  0  0  0  0  0  0
    4.8134   -0.3118    1.5243 F   0  0  0  0  0  0  0  0  0  0  0  0
    3.0613    1.1433    1.8801 F   0  0  0  0  0  0  0  0  0  0  0  0
    2.6856   -1.1238    1.8765 F   0  0  0  0  0  0  0  0  0  0  0  0
   -3.0814    0.8349    0.6011 H   0  0  0  0  0  0  0  0  0  0  0  0
  1  7  1  0  0  0  0
  2  8  1  0  0  0  0
  2  1  2  0  0  0  0
  3  2  1  0  0  0  0
  4  3  2  0  0  0  0
  4  5  1  0  0  0  0
  5  6  2  0  0  0  0
  6 18  1  0  0  0  0
  6  1  1  0  0  0  0
  9  4  1  0  0  0  0
 10  5  1  0  0  0  0
 11  3  1  0  0  0  0
 12 11  1  0  0  0  0
 12 14  1  0  0  0  0
 13 15  1  0  0  0  0
 13 17  1  0  0  0  0
 13 16  1  0  0  0  0
M  RAD  2  11   2  12   2
M  END
