Coordinates from ORCA-job Ph-N2-BF4-B3LYPG-6-31G_dp-scan-d09-49-n400
 OpenBabel08281821203D

 18 17  0  0  0  0  0  0  0  0999 V2000
   -1.0385    0.1058    0.9148 C   0  0  0  0  0  0  0  0  0  0  0  0
    0.2543    0.1699    0.4082 C   0  0  0  0  0  0  0  0  0  0  0  0
    0.5420    1.2450   -0.4453 C   0  0  0  0  0  0  0  0  0  0  0  0
   -0.3845    2.2410   -0.8013 C   0  0  0  0  0  0  0  0  0  0  0  0
   -1.6622    2.1438   -0.2688 C   0  0  0  0  0  0  0  0  0  0  0  0
   -1.9854    1.0809    0.5850 C   0  0  0  0  0  0  0  0  0  0  0  0
   -1.3018   -0.7075    1.5823 H   0  0  0  0  0  0  0  0  0  0  0  0
    1.0368   -0.5478    0.6297 H   0  0  0  0  0  0  0  0  0  0  0  0
   -0.0992    3.0540   -1.4594 H   0  0  0  0  0  0  0  0  0  0  0  0
   -2.4038    2.8956   -0.5161 H   0  0  0  0  0  0  0  0  0  0  0  0
    1.8035    1.3567   -1.0139 N   0  0  0  0  0  0  0  0  0  0  0  0
    2.7377    1.5159   -1.5924 N   0  0  0  0  0  0  0  0  0  0  0  0
    3.4647    0.0939    1.2329 B   0  0  0  0  0  0  0  0  0  0  0  0
    4.8098    0.3162    1.0511 F   0  0  0  0  0  0  0  0  0  0  0  0
    3.1545   -0.6237    2.3723 F   0  0  0  0  0  0  0  0  0  0  0  0
    2.7581    1.3424    1.2437 F   0  0  0  0  0  0  0  0  0  0  0  0
    2.9412   -0.6228    0.0843 F   0  0  0  0  0  0  0  0  0  0  0  0
   -2.9869    1.0167    0.9988 H   0  0  0  0  0  0  0  0  0  0  0  0
  1  7  1  0  0  0  0
  2  8  1  0  0  0  0
  2  1  2  0  0  0  0
  3  2  1  0  0  0  0
  4  3  2  0  0  0  0
  4  5  1  0  0  0  0
  5  6  2  0  0  0  0
  6  1  1  0  0  0  0
  6 18  1  0  0  0  0
  9  4  1  0  0  0  0
 10  5  1  0  0  0  0
 11  3  1  0  0  0  0
 12 11  1  0  0  0  0
 13 16  1  0  0  0  0
 13 15  1  0  0  0  0
 14 13  1  0  0  0  0
 17 13  1  0  0  0  0
M  RAD  2  11   2  12   3
M  END
