Coordinates from ORCA-job Ph-N2-BF4-B3LYPG-6-31G_dp-scan-d09-49-n400
 OpenBabel08281821203D

 18 17  0  0  0  0  0  0  0  0999 V2000
   -0.5572   -0.1797    0.4917 C   0  0  0  0  0  0  0  0  0  0  0  0
    0.4799   -0.0555   -0.4372 C   0  0  0  0  0  0  0  0  0  0  0  0
    0.7702    1.1935   -1.0160 C   0  0  0  0  0  0  0  0  0  0  0  0
   -0.0080    2.3040   -0.6570 C   0  0  0  0  0  0  0  0  0  0  0  0
   -1.0389    2.1751    0.2725 C   0  0  0  0  0  0  0  0  0  0  0  0
   -1.3157    0.9357    0.8546 C   0  0  0  0  0  0  0  0  0  0  0  0
   -0.7757   -1.1512    0.9254 H   0  0  0  0  0  0  0  0  0  0  0  0
    1.0450   -0.9324   -0.7408 H   0  0  0  0  0  0  0  0  0  0  0  0
    0.2081    3.2616   -1.1204 H   0  0  0  0  0  0  0  0  0  0  0  0
   -1.6300    3.0456    0.5428 H   0  0  0  0  0  0  0  0  0  0  0  0
    1.7773    1.3506   -2.0288 N   0  0  0  0  0  0  0  0  0  0  0  0
    3.0116    1.1847   -1.6256 N   0  0  0  0  0  0  0  0  0  0  0  0
    2.1287    0.2767    2.1735 B   0  0  0  0  0  0  0  0  0  0  0  0
    3.1983    0.9981   -0.7652 F   0  0  0  0  0  0  0  0  0  0  0  0
    2.8849   -0.5748    1.4964 F   0  0  0  0  0  0  0  0  0  0  0  0
    2.2650    1.5709    1.9518 F   0  0  0  0  0  0  0  0  0  0  0  0
    1.3189   -0.1630    3.1132 F   0  0  0  0  0  0  0  0  0  0  0  0
   -2.1218    0.8361    1.5752 H   0  0  0  0  0  0  0  0  0  0  0  0
  1  6  1  0  0  0  0
  1  7  1  0  0  0  0
  2  1  2  0  0  0  0
  3  4  2  0  0  0  0
  3  2  1  0  0  0  0
  4  5  1  0  0  0  0
  5 10  1  0  0  0  0
  5  6  2  0  0  0  0
  6 18  1  0  0  0  0
  8  2  1  0  0  0  0
  9  4  1  0  0  0  0
 11 12  2  0  0  0  0
 11  3  1  0  0  0  0
 12 14  1  0  0  0  0
 13 17  1  0  0  0  0
 15 13  1  0  0  0  0
 16 13  1  0  0  0  0
M  END
