Coordinates from ORCA-job Ph-N2-BF4-B3LYPG-6-31G_dp-scan-d09-49-n400
 OpenBabel08281821203D

 18 17  0  0  0  0  0  0  0  0999 V2000
   -0.9826    0.2638    1.1233 C   0  0  0  0  0  0  0  0  0  0  0  0
    0.2702    0.2823    0.5164 C   0  0  0  0  0  0  0  0  0  0  0  0
    0.4539    1.2392   -0.4938 C   0  0  0  0  0  0  0  0  0  0  0  0
   -0.5266    2.1635   -0.9053 C   0  0  0  0  0  0  0  0  0  0  0  0
   -1.7541    2.1159   -0.2638 C   0  0  0  0  0  0  0  0  0  0  0  0
   -1.9792    1.1673    0.7448 C   0  0  0  0  0  0  0  0  0  0  0  0
   -1.1718   -0.4587    1.9099 H   0  0  0  0  0  0  0  0  0  0  0  0
    1.0873   -0.3853    0.7976 H   0  0  0  0  0  0  0  0  0  0  0  0
   -0.3174    2.8823   -1.6898 H   0  0  0  0  0  0  0  0  0  0  0  0
   -2.5348    2.8134   -0.5469 H   0  0  0  0  0  0  0  0  0  0  0  0
    1.6531    1.2788   -1.1892 N   0  0  0  0  0  0  0  0  0  0  0  0
    2.5166    1.3450   -1.8889 N   0  0  0  0  0  0  0  0  0  0  0  0
    3.6162    0.0404    1.1510 B   0  0  0  0  0  0  0  0  0  0  0  0
    4.3566   -0.0251    2.3157 F   0  0  0  0  0  0  0  0  0  0  0  0
    2.7474   -1.0929    1.0535 F   0  0  0  0  0  0  0  0  0  0  0  0
    2.7606    1.1992    1.1444 F   0  0  0  0  0  0  0  0  0  0  0  0
    4.3900    0.1088   -0.0127 F   0  0  0  0  0  0  0  0  0  0  0  0
   -2.9449    1.1381    1.2399 H   0  0  0  0  0  0  0  0  0  0  0  0
  1  7  1  0  0  0  0
  2  8  1  0  0  0  0
  2  1  2  0  0  0  0
  3  2  1  0  0  0  0
  4  3  2  0  0  0  0
  4  5  1  0  0  0  0
  5  6  2  0  0  0  0
  6  1  1  0  0  0  0
  6 18  1  0  0  0  0
  9  4  1  0  0  0  0
 10  5  1  0  0  0  0
 11  3  1  0  0  0  0
 12 11  1  0  0  0  0
 13 14  1  0  0  0  0
 15 13  1  0  0  0  0
 16 13  1  0  0  0  0
 17 13  1  0  0  0  0
M  RAD  2  11   2  12   3
M  END
