Coordinates from ORCA-job Ph-N2-BF4-B3LYPG-6-31G_dp-scan-d09-49-n400
 OpenBabel08281821203D

 18 17  0  0  0  0  0  0  0  0999 V2000
   -1.0555    0.0943    0.6609 C   0  0  0  0  0  0  0  0  0  0  0  0
    0.2725    0.3036    0.3023 C   0  0  0  0  0  0  0  0  0  0  0  0
    0.5756    1.4735   -0.4168 C   0  0  0  0  0  0  0  0  0  0  0  0
   -0.4076    2.4109   -0.7697 C   0  0  0  0  0  0  0  0  0  0  0  0
   -1.7263    2.1756   -0.4004 C   0  0  0  0  0  0  0  0  0  0  0  0
   -2.0476    1.0171    0.3143 C   0  0  0  0  0  0  0  0  0  0  0  0
   -1.3148   -0.7982    1.2209 H   0  0  0  0  0  0  0  0  0  0  0  0
    1.0441   -0.4006    0.5807 H   0  0  0  0  0  0  0  0  0  0  0  0
   -0.1211    3.2997   -1.3211 H   0  0  0  0  0  0  0  0  0  0  0  0
   -2.4985    2.8897   -0.6659 H   0  0  0  0  0  0  0  0  0  0  0  0
    1.8758    1.7827   -0.8335 N   0  0  0  0  0  0  0  0  0  0  0  0
    2.9784    1.4298   -0.8607 N   0  0  0  0  0  0  0  0  0  0  0  0
    3.4743   -0.0888    1.4697 B   0  0  0  0  0  0  0  0  0  0  0  0
    3.1599   -0.0625   -0.1522 F   0  0  0  0  0  0  0  0  0  0  0  0
    4.8010   -0.3111    1.5492 F   0  0  0  0  0  0  0  0  0  0  0  0
    3.0418    1.1467    1.8601 F   0  0  0  0  0  0  0  0  0  0  0  0
    2.6656   -1.1204    1.8614 F   0  0  0  0  0  0  0  0  0  0  0  0
   -3.0771    0.8341    0.6069 H   0  0  0  0  0  0  0  0  0  0  0  0
  1  7  1  0  0  0  0
  2  8  1  0  0  0  0
  2  1  2  0  0  0  0
  3  2  1  0  0  0  0
  4  3  2  0  0  0  0
  4  5  1  0  0  0  0
  5  6  2  0  0  0  0
  6 18  1  0  0  0  0
  6  1  1  0  0  0  0
  9  4  1  0  0  0  0
 10  5  1  0  0  0  0
 11  3  1  0  0  0  0
 12 11  2  0  0  0  0
 13 15  1  0  0  0  0
 13 16  1  0  0  0  0
 13 17  1  0  0  0  0
 14 13  1  0  0  0  0
M  RAD  1  12   2
M  END
