Coordinates from ORCA-job Ph-N2-BF4-B3LYPG-6-31G_dp-scan-d09-49-n400
 OpenBabel08281821203D

 18 17  0  0  0  0  0  0  0  0999 V2000
   -1.0067    0.1741    0.9984 C   0  0  0  0  0  0  0  0  0  0  0  0
    0.2961    0.2730    0.5217 C   0  0  0  0  0  0  0  0  0  0  0  0
    0.5500    1.3031   -0.3976 C   0  0  0  0  0  0  0  0  0  0  0  0
   -0.4241    2.2135   -0.8479 C   0  0  0  0  0  0  0  0  0  0  0  0
   -1.7107    2.0793   -0.3471 C   0  0  0  0  0  0  0  0  0  0  0  0
   -1.9982    1.0638    0.5741 C   0  0  0  0  0  0  0  0  0  0  0  0
   -1.2430   -0.6048    1.7153 H   0  0  0  0  0  0  0  0  0  0  0  0
    1.0909   -0.3979    0.8232 H   0  0  0  0  0  0  0  0  0  0  0  0
   -0.1661    2.9920   -1.5574 H   0  0  0  0  0  0  0  0  0  0  0  0
   -2.4862    2.7645   -0.6713 H   0  0  0  0  0  0  0  0  0  0  0  0
    1.8185    1.4712   -0.9362 N   0  0  0  0  0  0  0  0  0  0  0  0
    2.7686    1.6801   -1.4705 N   0  0  0  0  0  0  0  0  0  0  0  0
    3.4720    0.0081    1.1591 B   0  0  0  0  0  0  0  0  0  0  0  0
    4.8385    0.1051    1.0857 F   0  0  0  0  0  0  0  0  0  0  0  0
    3.0005   -0.7835    2.1992 F   0  0  0  0  0  0  0  0  0  0  0  0
    2.8875    1.3121    1.2667 F   0  0  0  0  0  0  0  0  0  0  0  0
    2.9593   -0.5463   -0.0741 F   0  0  0  0  0  0  0  0  0  0  0  0
   -3.0065    0.9686    0.9646 H   0  0  0  0  0  0  0  0  0  0  0  0
  1  7  1  0  0  0  0
  2  8  1  0  0  0  0
  2  1  2  0  0  0  0
  3  2  1  0  0  0  0
  4  3  2  0  0  0  0
  4  5  1  0  0  0  0
  5  6  2  0  0  0  0
  6 18  1  0  0  0  0
  6  1  1  0  0  0  0
  9  4  1  0  0  0  0
 10  5  1  0  0  0  0
 11  3  1  0  0  0  0
 12 11  1  0  0  0  0
 13 16  1  0  0  0  0
 13 15  1  0  0  0  0
 14 13  1  0  0  0  0
 17 13  1  0  0  0  0
M  RAD  2  11   2  12   3
M  END
