Coordinates from ORCA-job Ph-N2-BF4-B3LYPG-6-31G_dp-scan-d09-49-n400
 OpenBabel08281821203D

 18 17  0  0  0  0  0  0  0  0999 V2000
   -1.1195    0.1242    0.8214 C   0  0  0  0  0  0  0  0  0  0  0  0
    0.2126    0.2471    0.4377 C   0  0  0  0  0  0  0  0  0  0  0  0
    0.5296    1.3554   -0.3620 C   0  0  0  0  0  0  0  0  0  0  0  0
   -0.3995    2.3253   -0.7811 C   0  0  0  0  0  0  0  0  0  0  0  0
   -1.7136    2.1700   -0.3658 C   0  0  0  0  0  0  0  0  0  0  0  0
   -2.0693    1.0729    0.4314 C   0  0  0  0  0  0  0  0  0  0  0  0
   -1.4125   -0.7174    1.4399 H   0  0  0  0  0  0  0  0  0  0  0  0
    0.9982   -0.4524    0.7220 H   0  0  0  0  0  0  0  0  0  0  0  0
   -0.0881    3.1613   -1.3976 H   0  0  0  0  0  0  0  0  0  0  0  0
   -2.4594    2.8996   -0.6617 H   0  0  0  0  0  0  0  0  0  0  0  0
    1.8309    1.5122   -0.8176 N   0  0  0  0  0  0  0  0  0  0  0  0
    2.8229    1.6831   -1.2922 N   0  0  0  0  0  0  0  0  0  0  0  0
    3.5552   -0.0658    1.2392 B   0  0  0  0  0  0  0  0  0  0  0  0
    4.4121    0.2975    0.1846 F   0  0  0  0  0  0  0  0  0  0  0  0
    4.2380   -0.3894    2.3828 F   0  0  0  0  0  0  0  0  0  0  0  0
    2.6685    1.0386    1.4734 F   0  0  0  0  0  0  0  0  0  0  0  0
    2.7351   -1.1476    0.7998 F   0  0  0  0  0  0  0  0  0  0  0  0
   -3.1006    0.9611    0.7516 H   0  0  0  0  0  0  0  0  0  0  0  0
  1  7  1  0  0  0  0
  2  8  1  0  0  0  0
  2  1  1  0  0  0  0
  3  2  2  0  0  0  0
  4  5  2  0  0  0  0
  4  3  1  0  0  0  0
  5  6  1  0  0  0  0
  6 18  1  0  0  0  0
  6  1  2  0  0  0  0
  9  4  1  0  0  0  0
 10  5  1  0  0  0  0
 11  3  1  0  0  0  0
 12 11  1  0  0  0  0
 13 16  1  0  0  0  0
 13 15  1  0  0  0  0
 14 13  1  0  0  0  0
 17 13  1  0  0  0  0
M  RAD  2  11   2  12   3
M  END
