Coordinates from ORCA-job Ph-N2-BF4-B3LYPG-6-31G_dp-scan-d09-49-n400
 OpenBabel08281821203D

 18 17  0  0  0  0  0  0  0  0999 V2000
   -1.0015    0.2857    1.1583 C   0  0  0  0  0  0  0  0  0  0  0  0
    0.2518    0.2713    0.5530 C   0  0  0  0  0  0  0  0  0  0  0  0
    0.4530    1.2021   -0.4782 C   0  0  0  0  0  0  0  0  0  0  0  0
   -0.5159    2.1244   -0.9194 C   0  0  0  0  0  0  0  0  0  0  0  0
   -1.7461    2.1088   -0.2813 C   0  0  0  0  0  0  0  0  0  0  0  0
   -1.9848    1.1929    0.7538 C   0  0  0  0  0  0  0  0  0  0  0  0
   -1.2027   -0.4124    1.9637 H   0  0  0  0  0  0  0  0  0  0  0  0
    1.0611   -0.3997    0.8399 H   0  0  0  0  0  0  0  0  0  0  0  0
   -0.2953    2.8190   -1.7222 H   0  0  0  0  0  0  0  0  0  0  0  0
   -2.5179    2.8069   -0.5867 H   0  0  0  0  0  0  0  0  0  0  0  0
    1.6634    1.2237   -1.1538 N   0  0  0  0  0  0  0  0  0  0  0  0
    2.5537    1.2891   -1.8191 N   0  0  0  0  0  0  0  0  0  0  0  0
    3.6155    0.0686    1.1150 B   0  0  0  0  0  0  0  0  0  0  0  0
    4.3271   -0.1440    2.2788 F   0  0  0  0  0  0  0  0  0  0  0  0
    2.7953   -1.0657    0.8106 F   0  0  0  0  0  0  0  0  0  0  0  0
    2.7158    1.1790    1.2488 F   0  0  0  0  0  0  0  0  0  0  0  0
    4.4189    0.3348   -0.0040 F   0  0  0  0  0  0  0  0  0  0  0  0
   -2.9510    1.1915    1.2488 H   0  0  0  0  0  0  0  0  0  0  0  0
  1  7  1  0  0  0  0
  2  8  1  0  0  0  0
  2  1  2  0  0  0  0
  3  2  1  0  0  0  0
  4  3  2  0  0  0  0
  4  5  1  0  0  0  0
  5  6  2  0  0  0  0
  6  1  1  0  0  0  0
  6 18  1  0  0  0  0
  9  4  1  0  0  0  0
 10  5  1  0  0  0  0
 11  3  1  0  0  0  0
 12 11  1  0  0  0  0
 13 16  1  0  0  0  0
 13 14  1  0  0  0  0
 15 13  1  0  0  0  0
 17 13  1  0  0  0  0
M  RAD  2  11   2  12   3
M  END
