Coordinates from ORCA-job Ph-N2-BF4-B3LYPG-6-31G_dp-scan-d09-49-n400
 OpenBabel08281821203D

 18 17  0  0  0  0  0  0  0  0999 V2000
   -1.1212    0.1252    0.8211 C   0  0  0  0  0  0  0  0  0  0  0  0
    0.2115    0.2482    0.4397 C   0  0  0  0  0  0  0  0  0  0  0  0
    0.5299    1.3560   -0.3602 C   0  0  0  0  0  0  0  0  0  0  0  0
   -0.3990    2.3250   -0.7820 C   0  0  0  0  0  0  0  0  0  0  0  0
   -1.7138    2.1696   -0.3691 C   0  0  0  0  0  0  0  0  0  0  0  0
   -2.0707    1.0731    0.4284 C   0  0  0  0  0  0  0  0  0  0  0  0
   -1.4151   -0.7161    1.4396 H   0  0  0  0  0  0  0  0  0  0  0  0
    0.9962   -0.4513    0.7261 H   0  0  0  0  0  0  0  0  0  0  0  0
   -0.0867    3.1604   -1.3987 H   0  0  0  0  0  0  0  0  0  0  0  0
   -2.4594    2.8986   -0.6672 H   0  0  0  0  0  0  0  0  0  0  0  0
    1.8324    1.5129   -0.8119 N   0  0  0  0  0  0  0  0  0  0  0  0
    2.8301    1.6798   -1.2764 N   0  0  0  0  0  0  0  0  0  0  0  0
    3.5542   -0.0657    1.2378 B   0  0  0  0  0  0  0  0  0  0  0  0
    4.3929    0.3041    0.1681 F   0  0  0  0  0  0  0  0  0  0  0  0
    4.2596   -0.3883    2.3677 F   0  0  0  0  0  0  0  0  0  0  0  0
    2.6682    1.0341    1.4874 F   0  0  0  0  0  0  0  0  0  0  0  0
    2.7338   -1.1507    0.8089 F   0  0  0  0  0  0  0  0  0  0  0  0
   -3.1026    0.9612    0.7466 H   0  0  0  0  0  0  0  0  0  0  0  0
  1  7  1  0  0  0  0
  2  8  1  0  0  0  0
  2  1  1  0  0  0  0
  3  2  2  0  0  0  0
  4  5  2  0  0  0  0
  4  3  1  0  0  0  0
  5  6  1  0  0  0  0
  6 18  1  0  0  0  0
  6  1  2  0  0  0  0
  9  4  1  0  0  0  0
 10  5  1  0  0  0  0
 11  3  1  0  0  0  0
 12 11  1  0  0  0  0
 13 16  1  0  0  0  0
 13 15  1  0  0  0  0
 14 13  1  0  0  0  0
 17 13  1  0  0  0  0
M  RAD  2  11   2  12   3
M  END
