Coordinates from ORCA-job Ph-N2-BF4-B3LYPG-6-31G_dp-scan-d09-49-n400
 OpenBabel08281821203D

 18 17  0  0  0  0  0  0  0  0999 V2000
   -1.1235    0.1264    0.8208 C   0  0  0  0  0  0  0  0  0  0  0  0
    0.2100    0.2494    0.4421 C   0  0  0  0  0  0  0  0  0  0  0  0
    0.5303    1.3565   -0.3582 C   0  0  0  0  0  0  0  0  0  0  0  0
   -0.3982    2.3243   -0.7832 C   0  0  0  0  0  0  0  0  0  0  0  0
   -1.7140    2.1691   -0.3732 C   0  0  0  0  0  0  0  0  0  0  0  0
   -2.0724    1.0734    0.4248 C   0  0  0  0  0  0  0  0  0  0  0  0
   -1.4186   -0.7144    1.4395 H   0  0  0  0  0  0  0  0  0  0  0  0
    0.9936   -0.4502    0.7309 H   0  0  0  0  0  0  0  0  0  0  0  0
   -0.0849    3.1591   -1.4003 H   0  0  0  0  0  0  0  0  0  0  0  0
   -2.4592    2.8973   -0.6740 H   0  0  0  0  0  0  0  0  0  0  0  0
    1.8343    1.5131   -0.8052 N   0  0  0  0  0  0  0  0  0  0  0  0
    2.8392    1.6752   -1.2560 N   0  0  0  0  0  0  0  0  0  0  0  0
    3.5529   -0.0653    1.2363 B   0  0  0  0  0  0  0  0  0  0  0  0
    4.3693    0.3127    0.1484 F   0  0  0  0  0  0  0  0  0  0  0  0
    4.2858   -0.3873    2.3483 F   0  0  0  0  0  0  0  0  0  0  0  0
    2.6687    1.0290    1.5050 F   0  0  0  0  0  0  0  0  0  0  0  0
    2.7323   -1.1537    0.8192 F   0  0  0  0  0  0  0  0  0  0  0  0
   -3.1051    0.9614    0.7407 H   0  0  0  0  0  0  0  0  0  0  0  0
  1  7  1  0  0  0  0
  2  8  1  0  0  0  0
  2  1  1  0  0  0  0
  3  2  2  0  0  0  0
  4  5  2  0  0  0  0
  4  3  1  0  0  0  0
  5  6  1  0  0  0  0
  6 18  1  0  0  0  0
  6  1  2  0  0  0  0
  9  4  1  0  0  0  0
 10  5  1  0  0  0  0
 11  3  1  0  0  0  0
 12 11  1  0  0  0  0
 13 16  1  0  0  0  0
 13 15  1  0  0  0  0
 14 13  1  0  0  0  0
 17 13  1  0  0  0  0
M  RAD  2  11   2  12   3
M  END
