Coordinates from ORCA-job Ph-N2-BF4-B3LYPG-6-31G_dp-scan-d09-49-n400
 OpenBabel08281821203D

 18 17  0  0  0  0  0  0  0  0999 V2000
   -1.0417    0.2866    1.1254 C   0  0  0  0  0  0  0  0  0  0  0  0
    0.2490    0.3542    0.6082 C   0  0  0  0  0  0  0  0  0  0  0  0
    0.4669    1.3065   -0.4012 C   0  0  0  0  0  0  0  0  0  0  0  0
   -0.5248    2.1702   -0.9002 C   0  0  0  0  0  0  0  0  0  0  0  0
   -1.7953    2.0731   -0.3524 C   0  0  0  0  0  0  0  0  0  0  0  0
   -2.0496    1.1342    0.6567 C   0  0  0  0  0  0  0  0  0  0  0  0
   -1.2552   -0.4328    1.9087 H   0  0  0  0  0  0  0  0  0  0  0  0
    1.0635   -0.2822    0.9547 H   0  0  0  0  0  0  0  0  0  0  0  0
   -0.2917    2.8840   -1.6825 H   0  0  0  0  0  0  0  0  0  0  0  0
   -2.5859    2.7242   -0.7088 H   0  0  0  0  0  0  0  0  0  0  0  0
    1.7233    1.4012   -0.9784 N   0  0  0  0  0  0  0  0  0  0  0  0
    2.7271    1.4430   -1.4610 N   0  0  0  0  0  0  0  0  0  0  0  0
    3.6296   -0.0188    1.0571 B   0  0  0  0  0  0  0  0  0  0  0  0
    4.7378   -0.0547    1.8563 F   0  0  0  0  0  0  0  0  0  0  0  0
    2.7418   -1.0923    1.3154 F   0  0  0  0  0  0  0  0  0  0  0  0
    2.8970    1.1891    1.2494 F   0  0  0  0  0  0  0  0  0  0  0  0
    3.9956   -0.0753   -0.3218 F   0  0  0  0  0  0  0  0  0  0  0  0
   -3.0468    1.0658    1.0804 H   0  0  0  0  0  0  0  0  0  0  0  0
  1  7  1  0  0  0  0
  2  8  1  0  0  0  0
  2  1  2  0  0  0  0
  3  2  1  0  0  0  0
  4  3  2  0  0  0  0
  4  5  1  0  0  0  0
  5  6  2  0  0  0  0
  6 18  1  0  0  0  0
  6  1  1  0  0  0  0
  9  4  1  0  0  0  0
 10  5  1  0  0  0  0
 11  3  1  0  0  0  0
 12 11  1  0  0  0  0
 13 16  1  0  0  0  0
 13 15  1  0  0  0  0
 13 14  1  0  0  0  0
 17 13  1  0  0  0  0
M  RAD  2  11   2  12   3
M  END
