Coordinates from ORCA-job Ph-N2-BF4-B3LYPG-6-31G_dp-scan-d09-49-n400
 OpenBabel08281821203D

 18 17  0  0  0  0  0  0  0  0999 V2000
   -0.5581   -0.1801    0.4896 C   0  0  0  0  0  0  0  0  0  0  0  0
    0.4796   -0.0562   -0.4385 C   0  0  0  0  0  0  0  0  0  0  0  0
    0.7697    1.1931   -1.0153 C   0  0  0  0  0  0  0  0  0  0  0  0
   -0.0075    2.3040   -0.6579 C   0  0  0  0  0  0  0  0  0  0  0  0
   -1.0382    2.1754    0.2721 C   0  0  0  0  0  0  0  0  0  0  0  0
   -1.3157    0.9358    0.8531 C   0  0  0  0  0  0  0  0  0  0  0  0
   -0.7772   -1.1517    0.9228 H   0  0  0  0  0  0  0  0  0  0  0  0
    1.0456   -0.9327   -0.7414 H   0  0  0  0  0  0  0  0  0  0  0  0
    0.2088    3.2616   -1.1212 H   0  0  0  0  0  0  0  0  0  0  0  0
   -1.6285    3.0462    0.5428 H   0  0  0  0  0  0  0  0  0  0  0  0
    1.7759    1.3509   -2.0307 N   0  0  0  0  0  0  0  0  0  0  0  0
    3.0052    1.1877   -1.6374 N   0  0  0  0  0  0  0  0  0  0  0  0
    2.1313    0.2767    2.1779 B   0  0  0  0  0  0  0  0  0  0  0  0
    3.1977    0.9971   -0.7581 F   0  0  0  0  0  0  0  0  0  0  0  0
    2.8862   -0.5753    1.5004 F   0  0  0  0  0  0  0  0  0  0  0  0
    2.2662    1.5709    1.9568 F   0  0  0  0  0  0  0  0  0  0  0  0
    1.3214   -0.1637    3.1175 F   0  0  0  0  0  0  0  0  0  0  0  0
   -2.1219    0.8362    1.5736 H   0  0  0  0  0  0  0  0  0  0  0  0
  1  6  1  0  0  0  0
  1  7  1  0  0  0  0
  2  1  2  0  0  0  0
  3  4  2  0  0  0  0
  3  2  1  0  0  0  0
  4  5  1  0  0  0  0
  5 10  1  0  0  0  0
  5  6  2  0  0  0  0
  6 18  1  0  0  0  0
  8  2  1  0  0  0  0
  9  4  1  0  0  0  0
 11 12  2  0  0  0  0
 11  3  1  0  0  0  0
 12 14  1  0  0  0  0
 13 17  1  0  0  0  0
 15 13  1  0  0  0  0
 16 13  1  0  0  0  0
M  END
