Coordinates from ORCA-job Ph-N2-BF4-B3LYPG-6-31G_dp-scan-d09-49-n400
 OpenBabel08281821203D

 18 17  0  0  0  0  0  0  0  0999 V2000
   -1.0664    0.0944    0.8903 C   0  0  0  0  0  0  0  0  0  0  0  0
    0.2310    0.1512    0.3950 C   0  0  0  0  0  0  0  0  0  0  0  0
    0.5382    1.2350   -0.4398 C   0  0  0  0  0  0  0  0  0  0  0  0
   -0.3718    2.2489   -0.7867 C   0  0  0  0  0  0  0  0  0  0  0  0
   -1.6544    2.1597   -0.2641 C   0  0  0  0  0  0  0  0  0  0  0  0
   -1.9980    1.0872    0.5693 C   0  0  0  0  0  0  0  0  0  0  0  0
   -1.3456   -0.7262    1.5422 H   0  0  0  0  0  0  0  0  0  0  0  0
    1.0074   -0.5757    0.6094 H   0  0  0  0  0  0  0  0  0  0  0  0
   -0.0712    3.0686   -1.4294 H   0  0  0  0  0  0  0  0  0  0  0  0
   -2.3843    2.9253   -0.5039 H   0  0  0  0  0  0  0  0  0  0  0  0
    1.8045    1.3326   -1.0012 N   0  0  0  0  0  0  0  0  0  0  0  0
    2.7376    1.4820   -1.5844 N   0  0  0  0  0  0  0  0  0  0  0  0
    3.4830    0.1052    1.2424 B   0  0  0  0  0  0  0  0  0  0  0  0
    4.7965    0.3979    0.9442 F   0  0  0  0  0  0  0  0  0  0  0  0
    3.3127   -0.5890    2.4208 F   0  0  0  0  0  0  0  0  0  0  0  0
    2.7118    1.3164    1.2744 F   0  0  0  0  0  0  0  0  0  0  0  0
    2.9130   -0.6669    0.1531 F   0  0  0  0  0  0  0  0  0  0  0  0
   -3.0034    1.0293    0.9744 H   0  0  0  0  0  0  0  0  0  0  0  0
  1  7  1  0  0  0  0
  2  8  1  0  0  0  0
  2  1  2  0  0  0  0
  3  2  1  0  0  0  0
  4  3  2  0  0  0  0
  4  5  1  0  0  0  0
  5  6  2  0  0  0  0
  6  1  1  0  0  0  0
  6 18  1  0  0  0  0
  9  4  1  0  0  0  0
 10  5  1  0  0  0  0
 11  3  1  0  0  0  0
 12 11  1  0  0  0  0
 13 16  1  0  0  0  0
 13 15  1  0  0  0  0
 14 13  1  0  0  0  0
 17 13  1  0  0  0  0
M  RAD  2  11   2  12   3
M  END
