Coordinates from ORCA-job Ph-N2-BF4-B3LYPG-6-31G_dp-scan-d09-49-n400
 OpenBabel08281821203D

 18 17  0  0  0  0  0  0  0  0999 V2000
   -1.1030    0.0982    0.8729 C   0  0  0  0  0  0  0  0  0  0  0  0
    0.2045    0.1476    0.4036 C   0  0  0  0  0  0  0  0  0  0  0  0
    0.5350    1.2326   -0.4205 C   0  0  0  0  0  0  0  0  0  0  0  0
   -0.3607    2.2541   -0.7822 C   0  0  0  0  0  0  0  0  0  0  0  0
   -1.6535    2.1727   -0.2845 C   0  0  0  0  0  0  0  0  0  0  0  0
   -2.0206    1.0996    0.5384 C   0  0  0  0  0  0  0  0  0  0  0  0
   -1.4017   -0.7229    1.5154 H   0  0  0  0  0  0  0  0  0  0  0  0
    0.9731   -0.5846    0.6289 H   0  0  0  0  0  0  0  0  0  0  0  0
   -0.0416    3.0736   -1.4165 H   0  0  0  0  0  0  0  0  0  0  0  0
   -2.3731    2.9443   -0.5354 H   0  0  0  0  0  0  0  0  0  0  0  0
    1.8137    1.3233   -0.9542 N   0  0  0  0  0  0  0  0  0  0  0  0
    2.7586    1.4743   -1.5184 N   0  0  0  0  0  0  0  0  0  0  0  0
    3.5085    0.0953    1.2396 B   0  0  0  0  0  0  0  0  0  0  0  0
    4.7275    0.5268    0.7445 F   0  0  0  0  0  0  0  0  0  0  0  0
    3.6013   -0.5857    2.4299 F   0  0  0  0  0  0  0  0  0  0  0  0
    2.6301    1.2233    1.3772 F   0  0  0  0  0  0  0  0  0  0  0  0
    2.8763   -0.7446    0.2426 F   0  0  0  0  0  0  0  0  0  0  0  0
   -3.0338    1.0480    0.9244 H   0  0  0  0  0  0  0  0  0  0  0  0
  1  7  1  0  0  0  0
  2  8  1  0  0  0  0
  2  1  2  0  0  0  0
  3  2  1  0  0  0  0
  4  3  2  0  0  0  0
  4  5  1  0  0  0  0
  5  6  2  0  0  0  0
  6  1  1  0  0  0  0
  6 18  1  0  0  0  0
  9  4  1  0  0  0  0
 10  5  1  0  0  0  0
 11  3  1  0  0  0  0
 12 11  1  0  0  0  0
 13 16  1  0  0  0  0
 13 15  1  0  0  0  0
 14 13  1  0  0  0  0
 17 13  1  0  0  0  0
M  RAD  2  11   2  12   3
M  END
