Coordinates from ORCA-job Ph-N2-BF4-B3LYPG-6-31G_dp-scan-d09-49-n400
 OpenBabel08281821203D

 18 17  0  0  0  0  0  0  0  0999 V2000
   -1.1048    0.1194    0.7630 C   0  0  0  0  0  0  0  0  0  0  0  0
    0.2295    0.2769    0.3999 C   0  0  0  0  0  0  0  0  0  0  0  0
    0.5435    1.4071   -0.3729 C   0  0  0  0  0  0  0  0  0  0  0  0
   -0.4042    2.3602   -0.7828 C   0  0  0  0  0  0  0  0  0  0  0  0
   -1.7230    2.1733   -0.3932 C   0  0  0  0  0  0  0  0  0  0  0  0
   -2.0692    1.0550    0.3765 C   0  0  0  0  0  0  0  0  0  0  0  0
   -1.3886   -0.7402    1.3608 H   0  0  0  0  0  0  0  0  0  0  0  0
    1.0053   -0.4249    0.6986 H   0  0  0  0  0  0  0  0  0  0  0  0
   -0.0993    3.2135   -1.3784 H   0  0  0  0  0  0  0  0  0  0  0  0
   -2.4789    2.8931   -0.6876 H   0  0  0  0  0  0  0  0  0  0  0  0
    1.8523    1.6035   -0.7863 N   0  0  0  0  0  0  0  0  0  0  0  0
    2.9474    1.6150   -1.0362 N   0  0  0  0  0  0  0  0  0  0  0  0
    3.5027   -0.0912    1.2849 B   0  0  0  0  0  0  0  0  0  0  0  0
    3.9183    0.1776   -0.0966 F   0  0  0  0  0  0  0  0  0  0  0  0
    4.6068   -0.2598    2.0668 F   0  0  0  0  0  0  0  0  0  0  0  0
    2.7226    1.0163    1.6690 F   0  0  0  0  0  0  0  0  0  0  0  0
    2.6827   -1.2334    1.2424 F   0  0  0  0  0  0  0  0  0  0  0  0
   -3.1027    0.9146    0.6780 H   0  0  0  0  0  0  0  0  0  0  0  0
  1  7  1  0  0  0  0
  2  8  1  0  0  0  0
  2  1  1  0  0  0  0
  3  2  2  0  0  0  0
  4  5  2  0  0  0  0
  4  3  1  0  0  0  0
  5  6  1  0  0  0  0
  6 18  1  0  0  0  0
  6  1  2  0  0  0  0
  9  4  1  0  0  0  0
 10  5  1  0  0  0  0
 11  3  1  0  0  0  0
 12 11  1  0  0  0  0
 13 16  1  0  0  0  0
 13 15  1  0  0  0  0
 14 13  1  0  0  0  0
 17 13  1  0  0  0  0
M  RAD  2  11   2  12   3
M  END
