Coordinates from ORCA-job Ph-N2-BF4-B3LYPG-6-31G_dp-scan-d09-49-n400
 OpenBabel08281821203D

 18 17  0  0  0  0  0  0  0  0999 V2000
   -1.1352    0.1384    0.8175 C   0  0  0  0  0  0  0  0  0  0  0  0
    0.2026    0.2653    0.4553 C   0  0  0  0  0  0  0  0  0  0  0  0
    0.5334    1.3673   -0.3492 C   0  0  0  0  0  0  0  0  0  0  0  0
   -0.3973    2.3219   -0.7961 C   0  0  0  0  0  0  0  0  0  0  0  0
   -1.7190    2.1650   -0.4045 C   0  0  0  0  0  0  0  0  0  0  0  0
   -2.0837    1.0762    0.3992 C   0  0  0  0  0  0  0  0  0  0  0  0
   -1.4345   -0.6988    1.4391 H   0  0  0  0  0  0  0  0  0  0  0  0
    0.9777   -0.4327    0.7631 H   0  0  0  0  0  0  0  0  0  0  0  0
   -0.0792    3.1515   -1.4177 H   0  0  0  0  0  0  0  0  0  0  0  0
   -2.4637    2.8857   -0.7241 H   0  0  0  0  0  0  0  0  0  0  0  0
    1.8458    1.5320   -0.7650 N   0  0  0  0  0  0  0  0  0  0  0  0
    2.9074    1.6371   -1.1005 N   0  0  0  0  0  0  0  0  0  0  0  0
    3.5406   -0.0749    1.2356 B   0  0  0  0  0  0  0  0  0  0  0  0
    4.1748    0.3714    0.0205 F   0  0  0  0  0  0  0  0  0  0  0  0
    4.4751   -0.3704    2.1871 F   0  0  0  0  0  0  0  0  0  0  0  0
    2.6770    0.9727    1.6407 F   0  0  0  0  0  0  0  0  0  0  0  0
    2.7387   -1.1929    0.9036 F   0  0  0  0  0  0  0  0  0  0  0  0
   -3.1201    0.9612    0.7013 H   0  0  0  0  0  0  0  0  0  0  0  0
  1  7  1  0  0  0  0
  2  8  1  0  0  0  0
  2  1  1  0  0  0  0
  3  2  2  0  0  0  0
  4  5  2  0  0  0  0
  4  3  1  0  0  0  0
  5  6  1  0  0  0  0
  6 18  1  0  0  0  0
  6  1  2  0  0  0  0
  9  4  1  0  0  0  0
 10  5  1  0  0  0  0
 11  3  1  0  0  0  0
 12 11  1  0  0  0  0
 13 16  1  0  0  0  0
 13 15  1  0  0  0  0
 14 13  1  0  0  0  0
 17 13  1  0  0  0  0
M  RAD  2  11   2  12   3
M  END
