Coordinates from ORCA-job Ph-N2-BF4-B3LYPG-6-31G_dp-scan-d09-49-n400
 OpenBabel08281821203D

 18 17  0  0  0  0  0  0  0  0999 V2000
   -1.0569    0.1024    0.7075 C   0  0  0  0  0  0  0  0  0  0  0  0
    0.2728    0.3036    0.3495 C   0  0  0  0  0  0  0  0  0  0  0  0
    0.5606    1.4618   -0.3921 C   0  0  0  0  0  0  0  0  0  0  0  0
   -0.4119    2.4000   -0.7723 C   0  0  0  0  0  0  0  0  0  0  0  0
   -1.7277    2.1678   -0.3951 C   0  0  0  0  0  0  0  0  0  0  0  0
   -2.0461    1.0207    0.3422 C   0  0  0  0  0  0  0  0  0  0  0  0
   -1.3172   -0.7788    1.2842 H   0  0  0  0  0  0  0  0  0  0  0  0
    1.0539   -0.3907    0.6445 H   0  0  0  0  0  0  0  0  0  0  0  0
   -0.1268    3.2778   -1.3414 H   0  0  0  0  0  0  0  0  0  0  0  0
   -2.5016    2.8752   -0.6725 H   0  0  0  0  0  0  0  0  0  0  0  0
    1.8674    1.7088   -0.7950 N   0  0  0  0  0  0  0  0  0  0  0  0
    2.9789    1.5728   -0.9495 N   0  0  0  0  0  0  0  0  0  0  0  0
    3.4564   -0.1035    1.3458 B   0  0  0  0  0  0  0  0  0  0  0  0
    3.5405   -0.0385   -0.1545 F   0  0  0  0  0  0  0  0  0  0  0  0
    4.7152   -0.2619    1.8378 F   0  0  0  0  0  0  0  0  0  0  0  0
    2.8497    1.0962    1.7222 F   0  0  0  0  0  0  0  0  0  0  0  0
    2.6094   -1.1818    1.6075 F   0  0  0  0  0  0  0  0  0  0  0  0
   -3.0760    0.8441    0.6372 H   0  0  0  0  0  0  0  0  0  0  0  0
  1  7  1  0  0  0  0
  2  8  1  0  0  0  0
  2  1  1  0  0  0  0
  3  2  2  0  0  0  0
  4  5  2  0  0  0  0
  4  3  1  0  0  0  0
  5  6  1  0  0  0  0
  6 18  1  0  0  0  0
  6  1  2  0  0  0  0
  9  4  1  0  0  0  0
 10  5  1  0  0  0  0
 11  3  1  0  0  0  0
 12 11  1  0  0  0  0
 13 17  1  0  0  0  0
 13 16  1  0  0  0  0
 13 15  1  0  0  0  0
 14 13  1  0  0  0  0
M  RAD  2  11   2  12   3
M  END
