Coordinates from ORCA-job Ph-N2-BF4-B3LYPG-6-31G_dp-scan-d09-49-n400
 OpenBabel08281821203D

 18 17  0  0  0  0  0  0  0  0999 V2000
   -1.0169    0.2864    1.1620 C   0  0  0  0  0  0  0  0  0  0  0  0
    0.2409    0.2673    0.5665 C   0  0  0  0  0  0  0  0  0  0  0  0
    0.4542    1.1951   -0.4644 C   0  0  0  0  0  0  0  0  0  0  0  0
   -0.5081    2.1183   -0.9161 C   0  0  0  0  0  0  0  0  0  0  0  0
   -1.7440    2.1080   -0.2882 C   0  0  0  0  0  0  0  0  0  0  0  0
   -1.9940    1.1957    0.7472 C   0  0  0  0  0  0  0  0  0  0  0  0
   -1.2270   -0.4095    1.9669 H   0  0  0  0  0  0  0  0  0  0  0  0
    1.0458   -0.4064    0.8573 H   0  0  0  0  0  0  0  0  0  0  0  0
   -0.2786    2.8104   -1.7187 H   0  0  0  0  0  0  0  0  0  0  0  0
   -2.5111    2.8075   -0.6019 H   0  0  0  0  0  0  0  0  0  0  0  0
    1.6735    1.2116   -1.1240 N   0  0  0  0  0  0  0  0  0  0  0  0
    2.5824    1.2685   -1.7646 N   0  0  0  0  0  0  0  0  0  0  0  0
    3.6170    0.0787    1.0960 B   0  0  0  0  0  0  0  0  0  0  0  0
    4.3660   -0.1469    2.2314 F   0  0  0  0  0  0  0  0  0  0  0  0
    2.8001   -1.0566    0.7920 F   0  0  0  0  0  0  0  0  0  0  0  0
    2.7154    1.1783    1.2735 F   0  0  0  0  0  0  0  0  0  0  0  0
    4.3891    0.3709   -0.0432 F   0  0  0  0  0  0  0  0  0  0  0  0
   -2.9643    1.1985    1.2342 H   0  0  0  0  0  0  0  0  0  0  0  0
  1  7  1  0  0  0  0
  2  8  1  0  0  0  0
  2  1  2  0  0  0  0
  3  2  1  0  0  0  0
  4  3  2  0  0  0  0
  4  5  1  0  0  0  0
  5  6  2  0  0  0  0
  6  1  1  0  0  0  0
  6 18  1  0  0  0  0
  9  4  1  0  0  0  0
 10  5  1  0  0  0  0
 11  3  1  0  0  0  0
 12 11  1  0  0  0  0
 13 16  1  0  0  0  0
 13 14  1  0  0  0  0
 15 13  1  0  0  0  0
 17 13  1  0  0  0  0
M  RAD  2  11   2  12   3
M  END
