Coordinates from ORCA-job Ph-N2-BF4-B3LYPG-6-31G_dp-scan-d09-49-n400
 OpenBabel08281821203D

 18 17  0  0  0  0  0  0  0  0999 V2000
   -1.0586    0.0959    0.8957 C   0  0  0  0  0  0  0  0  0  0  0  0
    0.2369    0.1539    0.3956 C   0  0  0  0  0  0  0  0  0  0  0  0
    0.5391    1.2363   -0.4430 C   0  0  0  0  0  0  0  0  0  0  0  0
   -0.3745    2.2470   -0.7897 C   0  0  0  0  0  0  0  0  0  0  0  0
   -1.6552    2.1564   -0.2630 C   0  0  0  0  0  0  0  0  0  0  0  0
   -1.9936    1.0856    0.5749 C   0  0  0  0  0  0  0  0  0  0  0  0
   -1.3337   -0.7234    1.5510 H   0  0  0  0  0  0  0  0  0  0  0  0
    1.0148   -0.5713    0.6096 H   0  0  0  0  0  0  0  0  0  0  0  0
   -0.0778    3.0656   -1.4357 H   0  0  0  0  0  0  0  0  0  0  0  0
   -2.3876    2.9196   -0.5027 H   0  0  0  0  0  0  0  0  0  0  0  0
    1.8038    1.3365   -1.0074 N   0  0  0  0  0  0  0  0  0  0  0  0
    2.7370    1.4863   -1.5902 N   0  0  0  0  0  0  0  0  0  0  0  0
    3.4769    0.1048    1.2411 B   0  0  0  0  0  0  0  0  0  0  0  0
    4.8011    0.3778    0.9781 F   0  0  0  0  0  0  0  0  0  0  0  0
    3.2645   -0.5948    2.4105 F   0  0  0  0  0  0  0  0  0  0  0  0
    2.7231    1.3266    1.2629 F   0  0  0  0  0  0  0  0  0  0  0  0
    2.9216   -0.6536    0.1346 F   0  0  0  0  0  0  0  0  0  0  0  0
   -2.9974    1.0267    0.9836 H   0  0  0  0  0  0  0  0  0  0  0  0
  1  7  1  0  0  0  0
  2  8  1  0  0  0  0
  2  1  2  0  0  0  0
  3  2  1  0  0  0  0
  4  3  2  0  0  0  0
  4  5  1  0  0  0  0
  5  6  2  0  0  0  0
  6  1  1  0  0  0  0
  6 18  1  0  0  0  0
  9  4  1  0  0  0  0
 10  5  1  0  0  0  0
 11  3  1  0  0  0  0
 12 11  1  0  0  0  0
 13 16  1  0  0  0  0
 13 15  1  0  0  0  0
 14 13  1  0  0  0  0
 17 13  1  0  0  0  0
M  RAD  2  11   2  12   3
M  END
