Coordinates from ORCA-job Ph-N2-BF4-B3LYPG-6-31G_dp-scan-d09-49-n400
 OpenBabel08281821203D

 18 17  0  0  0  0  0  0  0  0999 V2000
   -1.0482    0.2990    1.1638 C   0  0  0  0  0  0  0  0  0  0  0  0
    0.2320    0.3151    0.6176 C   0  0  0  0  0  0  0  0  0  0  0  0
    0.4583    1.2404   -0.4126 C   0  0  0  0  0  0  0  0  0  0  0  0
   -0.5135    2.1298   -0.9072 C   0  0  0  0  0  0  0  0  0  0  0  0
   -1.7726    2.0868   -0.3277 C   0  0  0  0  0  0  0  0  0  0  0  0
   -2.0363    1.1738    0.7030 C   0  0  0  0  0  0  0  0  0  0  0  0
   -1.2690   -0.3997    1.9636 H   0  0  0  0  0  0  0  0  0  0  0  0
    1.0415   -0.3361    0.9438 H   0  0  0  0  0  0  0  0  0  0  0  0
   -0.2746    2.8216   -1.7074 H   0  0  0  0  0  0  0  0  0  0  0  0
   -2.5479    2.7598   -0.6771 H   0  0  0  0  0  0  0  0  0  0  0  0
    1.7000    1.2773   -1.0291 N   0  0  0  0  0  0  0  0  0  0  0  0
    2.6516    1.3209   -1.6068 N   0  0  0  0  0  0  0  0  0  0  0  0
    3.6424    0.0396    1.0524 B   0  0  0  0  0  0  0  0  0  0  0  0
    4.5375   -0.1420    2.0761 F   0  0  0  0  0  0  0  0  0  0  0  0
    2.7721   -1.0804    0.9187 F   0  0  0  0  0  0  0  0  0  0  0  0
    2.8098    1.1778    1.2803 F   0  0  0  0  0  0  0  0  0  0  0  0
    4.2829    0.2449   -0.1950 F   0  0  0  0  0  0  0  0  0  0  0  0
   -3.0255    1.1476    1.1496 H   0  0  0  0  0  0  0  0  0  0  0  0
  1  7  1  0  0  0  0
  2  8  1  0  0  0  0
  2  1  2  0  0  0  0
  3  2  1  0  0  0  0
  4  3  2  0  0  0  0
  4  5  1  0  0  0  0
  5  6  2  0  0  0  0
  6 18  1  0  0  0  0
  6  1  1  0  0  0  0
  9  4  1  0  0  0  0
 10  5  1  0  0  0  0
 11  3  1  0  0  0  0
 12 11  1  0  0  0  0
 13 16  1  0  0  0  0
 13 14  1  0  0  0  0
 15 13  1  0  0  0  0
 17 13  1  0  0  0  0
M  RAD  2  11   2  12   3
M  END
