Coordinates from ORCA-job Ph-N2-BF4-B3LYPG-6-31G_dp-scan-d09-49-n400
 OpenBabel08281821203D

 18 17  0  0  0  0  0  0  0  0999 V2000
   -1.1305    0.1107    0.8680 C   0  0  0  0  0  0  0  0  0  0  0  0
    0.1885    0.1637    0.4313 C   0  0  0  0  0  0  0  0  0  0  0  0
    0.5337    1.2456   -0.3908 C   0  0  0  0  0  0  0  0  0  0  0  0
   -0.3586    2.2590   -0.7833 C   0  0  0  0  0  0  0  0  0  0  0  0
   -1.6629    2.1739   -0.3176 C   0  0  0  0  0  0  0  0  0  0  0  0
   -2.0446    1.1046    0.5040 C   0  0  0  0  0  0  0  0  0  0  0  0
   -1.4415   -0.7083    1.5076 H   0  0  0  0  0  0  0  0  0  0  0  0
    0.9547   -0.5640    0.6786 H   0  0  0  0  0  0  0  0  0  0  0  0
   -0.0284    3.0751   -1.4162 H   0  0  0  0  0  0  0  0  0  0  0  0
   -2.3805    2.9392   -0.5925 H   0  0  0  0  0  0  0  0  0  0  0  0
    1.8260    1.3407   -0.8904 N   0  0  0  0  0  0  0  0  0  0  0  0
    2.7901    1.4975   -1.4208 N   0  0  0  0  0  0  0  0  0  0  0  0
    3.5311    0.0686    1.2235 B   0  0  0  0  0  0  0  0  0  0  0  0
    4.6368    0.5889    0.5577 F   0  0  0  0  0  0  0  0  0  0  0  0
    3.8476   -0.5823    2.3894 F   0  0  0  0  0  0  0  0  0  0  0  0
    2.6054    1.1353    1.4714 F   0  0  0  0  0  0  0  0  0  0  0  0
    2.8408   -0.8225    0.3213 F   0  0  0  0  0  0  0  0  0  0  0  0
   -3.0670    1.0501    0.8647 H   0  0  0  0  0  0  0  0  0  0  0  0
  1  7  1  0  0  0  0
  2  8  1  0  0  0  0
  2  1  2  0  0  0  0
  3  2  1  0  0  0  0
  4  3  2  0  0  0  0
  4  5  1  0  0  0  0
  5  6  2  0  0  0  0
  6 18  1  0  0  0  0
  6  1  1  0  0  0  0
  9  4  1  0  0  0  0
 10  5  1  0  0  0  0
 11  3  1  0  0  0  0
 12 11  1  0  0  0  0
 13 16  1  0  0  0  0
 13 15  1  0  0  0  0
 14 13  1  0  0  0  0
 17 13  1  0  0  0  0
M  RAD  2  11   2  12   3
M  END
