Coordinates from ORCA-job Ph-N2-BF4-B3LYPG-6-31G_dp-scan-d09-49-n400
 OpenBabel08281821203D

 18 17  0  0  0  0  0  0  0  0999 V2000
   -1.1258    0.1266    0.8209 C   0  0  0  0  0  0  0  0  0  0  0  0
    0.2082    0.2488    0.4438 C   0  0  0  0  0  0  0  0  0  0  0  0
    0.5304    1.3554   -0.3568 C   0  0  0  0  0  0  0  0  0  0  0  0
   -0.3969    2.3233   -0.7836 C   0  0  0  0  0  0  0  0  0  0  0  0
   -1.7134    2.1690   -0.3750 C   0  0  0  0  0  0  0  0  0  0  0  0
   -2.0735    1.0740    0.4231 C   0  0  0  0  0  0  0  0  0  0  0  0
   -1.4222   -0.7138    1.4395 H   0  0  0  0  0  0  0  0  0  0  0  0
    0.9916   -0.4507    0.7330 H   0  0  0  0  0  0  0  0  0  0  0  0
   -0.0823    3.1576   -1.4006 H   0  0  0  0  0  0  0  0  0  0  0  0
   -2.4578    2.8976   -0.6769 H   0  0  0  0  0  0  0  0  0  0  0  0
    1.8356    1.5102   -0.8010 N   0  0  0  0  0  0  0  0  0  0  0  0
    2.8441    1.6694   -1.2454 N   0  0  0  0  0  0  0  0  0  0  0  0
    3.5525   -0.0633    1.2347 B   0  0  0  0  0  0  0  0  0  0  0  0
    4.3571    0.3221    0.1392 F   0  0  0  0  0  0  0  0  0  0  0  0
    4.2985   -0.3868    2.3373 F   0  0  0  0  0  0  0  0  0  0  0  0
    2.6681    1.0269    1.5152 F   0  0  0  0  0  0  0  0  0  0  0  0
    2.7330   -1.1533    0.8208 F   0  0  0  0  0  0  0  0  0  0  0  0
   -3.1067    0.9628    0.7375 H   0  0  0  0  0  0  0  0  0  0  0  0
  1  7  1  0  0  0  0
  2  8  1  0  0  0  0
  2  1  1  0  0  0  0
  3  2  2  0  0  0  0
  4  5  2  0  0  0  0
  4  3  1  0  0  0  0
  5  6  1  0  0  0  0
  6 18  1  0  0  0  0
  6  1  2  0  0  0  0
  9  4  1  0  0  0  0
 10  5  1  0  0  0  0
 11  3  1  0  0  0  0
 12 11  1  0  0  0  0
 13 16  1  0  0  0  0
 13 15  1  0  0  0  0
 14 13  1  0  0  0  0
 17 13  1  0  0  0  0
M  RAD  2  11   2  12   3
M  END
