Coordinates from ORCA-job Ph-N2-BF4-B3LYPG-6-31G_dp-scan-d09-49-n400
 OpenBabel08281821203D

 18 17  0  0  0  0  0  0  0  0999 V2000
   -0.9831    0.2714    1.0728 C   0  0  0  0  0  0  0  0  0  0  0  0
    0.3151    0.4314    0.5954 C   0  0  0  0  0  0  0  0  0  0  0  0
    0.4939    1.4124   -0.3961 C   0  0  0  0  0  0  0  0  0  0  0  0
   -0.5399    2.2132   -0.9120 C   0  0  0  0  0  0  0  0  0  0  0  0
   -1.8172    2.0186   -0.4078 C   0  0  0  0  0  0  0  0  0  0  0  0
   -2.0347    1.0501    0.5815 C   0  0  0  0  0  0  0  0  0  0  0  0
   -1.1670   -0.4708    1.8424 H   0  0  0  0  0  0  0  0  0  0  0  0
    1.1453   -0.1595    0.9782 H   0  0  0  0  0  0  0  0  0  0  0  0
   -0.3327    2.9536   -1.6768 H   0  0  0  0  0  0  0  0  0  0  0  0
   -2.6404    2.6171   -0.7816 H   0  0  0  0  0  0  0  0  0  0  0  0
    1.7636    1.6046   -0.9141 N   0  0  0  0  0  0  0  0  0  0  0  0
    2.8293    1.6307   -1.2358 N   0  0  0  0  0  0  0  0  0  0  0  0
    3.5679   -0.0899    1.0838 B   0  0  0  0  0  0  0  0  0  0  0  0
    4.8972   -0.2291    1.3643 F   0  0  0  0  0  0  0  0  0  0  0  0
    2.7325   -0.9087    1.8705 F   0  0  0  0  0  0  0  0  0  0  0  0
    3.1422    1.2572    1.2567 F   0  0  0  0  0  0  0  0  0  0  0  0
    3.3054   -0.4307   -0.2884 F   0  0  0  0  0  0  0  0  0  0  0  0
   -3.0368    0.9045    0.9728 H   0  0  0  0  0  0  0  0  0  0  0  0
  1  7  1  0  0  0  0
  2  8  1  0  0  0  0
  2  1  1  0  0  0  0
  3  2  2  0  0  0  0
  4  5  2  0  0  0  0
  4  3  1  0  0  0  0
  5  6  1  0  0  0  0
  6 18  1  0  0  0  0
  6  1  2  0  0  0  0
  9  4  1  0  0  0  0
 10  5  1  0  0  0  0
 11  3  1  0  0  0  0
 12 11  1  0  0  0  0
 13 16  1  0  0  0  0
 13 14  1  0  0  0  0
 13 15  1  0  0  0  0
 17 13  1  0  0  0  0
M  RAD  2  11   2  12   3
M  END
