Coordinates from ORCA-job Ph-N2-BF4-B3LYPG-6-31G_dp-scan-d09-49-n400
 OpenBabel08281821203D

 18 17  0  0  0  0  0  0  0  0999 V2000
   -1.1284    0.1290    0.8189 C   0  0  0  0  0  0  0  0  0  0  0  0
    0.2068    0.2533    0.4467 C   0  0  0  0  0  0  0  0  0  0  0  0
    0.5312    1.3592   -0.3540 C   0  0  0  0  0  0  0  0  0  0  0  0
   -0.3969    2.3238   -0.7859 C   0  0  0  0  0  0  0  0  0  0  0  0
   -1.7150    2.1680   -0.3827 C   0  0  0  0  0  0  0  0  0  0  0  0
   -2.0765    1.0738    0.4158 C   0  0  0  0  0  0  0  0  0  0  0  0
   -1.4254   -0.7111    1.4375 H   0  0  0  0  0  0  0  0  0  0  0  0
    0.9883   -0.4455    0.7414 H   0  0  0  0  0  0  0  0  0  0  0  0
   -0.0814    3.1576   -1.4032 H   0  0  0  0  0  0  0  0  0  0  0  0
   -2.4596    2.8944   -0.6892 H   0  0  0  0  0  0  0  0  0  0  0  0
    1.8390    1.5156   -0.7891 N   0  0  0  0  0  0  0  0  0  0  0  0
    2.8637    1.6570   -1.2036 N   0  0  0  0  0  0  0  0  0  0  0  0
    3.5484   -0.0645    1.2333 B   0  0  0  0  0  0  0  0  0  0  0  0
    4.3070    0.3321    0.1007 F   0  0  0  0  0  0  0  0  0  0  0  0
    4.3496   -0.3813    2.2974 F   0  0  0  0  0  0  0  0  0  0  0  0
    2.6709    1.0164    1.5480 F   0  0  0  0  0  0  0  0  0  0  0  0
    2.7295   -1.1626    0.8477 F   0  0  0  0  0  0  0  0  0  0  0  0
   -3.1107    0.9609    0.7262 H   0  0  0  0  0  0  0  0  0  0  0  0
  1  7  1  0  0  0  0
  2  8  1  0  0  0  0
  2  1  1  0  0  0  0
  3  2  2  0  0  0  0
  4  5  2  0  0  0  0
  4  3  1  0  0  0  0
  5  6  1  0  0  0  0
  6 18  1  0  0  0  0
  6  1  2  0  0  0  0
  9  4  1  0  0  0  0
 10  5  1  0  0  0  0
 11  3  1  0  0  0  0
 12 11  1  0  0  0  0
 13 16  1  0  0  0  0
 13 15  1  0  0  0  0
 14 13  1  0  0  0  0
 17 13  1  0  0  0  0
M  RAD  2  11   2  12   3
M  END
