Coordinates from ORCA-job Ph-N2-BF4-B3LYPG-6-31G_dp-scan-d09-49-n400
 OpenBabel08281821203D

 18 17  0  0  0  0  0  0  0  0999 V2000
   -1.1472    0.1411    0.6397 C   0  0  0  0  0  0  0  0  0  0  0  0
    0.1880    0.4247    0.3659 C   0  0  0  0  0  0  0  0  0  0  0  0
    0.4881    1.5790   -0.3835 C   0  0  0  0  0  0  0  0  0  0  0  0
   -0.5359    2.4279   -0.8353 C   0  0  0  0  0  0  0  0  0  0  0  0
   -1.8645    2.1187   -0.5647 C   0  0  0  0  0  0  0  0  0  0  0  0
   -2.1698    0.9734    0.1748 C   0  0  0  0  0  0  0  0  0  0  0  0
   -1.3902   -0.7426    1.2212 H   0  0  0  0  0  0  0  0  0  0  0  0
    0.9751   -0.2150    0.7336 H   0  0  0  0  0  0  0  0  0  0  0  0
   -0.2647    3.3163   -1.3952 H   0  0  0  0  0  0  0  0  0  0  0  0
   -2.6558    2.7698   -0.9211 H   0  0  0  0  0  0  0  0  0  0  0  0
    1.7827    2.0247   -0.7251 N   0  0  0  0  0  0  0  0  0  0  0  0
    2.8807    1.5647   -0.6705 N   0  0  0  0  0  0  0  0  0  0  0  0
    3.8843   -0.2789    1.7022 B   0  0  0  0  0  0  0  0  0  0  0  0
    2.9065    0.1528   -0.1315 F   0  0  0  0  0  0  0  0  0  0  0  0
    4.9091   -0.9247    1.1695 F   0  0  0  0  0  0  0  0  0  0  0  0
    4.0207    0.9868    2.0772 F   0  0  0  0  0  0  0  0  0  0  0  0
    2.8386   -0.9742    2.1530 F   0  0  0  0  0  0  0  0  0  0  0  0
   -3.2051    0.7313    0.3957 H   0  0  0  0  0  0  0  0  0  0  0  0
  1  7  1  0  0  0  0
  2  1  1  0  0  0  0
  2  8  1  0  0  0  0
  3  2  2  0  0  0  0
  4  5  2  0  0  0  0
  4  3  1  0  0  0  0
  5  6  1  0  0  0  0
  6 18  1  0  0  0  0
  6  1  2  0  0  0  0
  9  4  1  0  0  0  0
 10  5  1  0  0  0  0
 11 12  1  0  0  0  0
 11  3  1  0  0  0  0
 12 14  1  0  0  0  0
 13 16  1  0  0  0  0
 13 17  1  0  0  0  0
 15 13  1  0  0  0  0
M  RAD  2  11   2  12   2
M  END
