Coordinates from ORCA-job Ph-N2-BF4-B3LYPG-6-31G_dp-scan-d09-49-n400
 OpenBabel08281821203D

 18 17  0  0  0  0  0  0  0  0999 V2000
   -1.0507    0.0997    0.6986 C   0  0  0  0  0  0  0  0  0  0  0  0
    0.2778    0.3041    0.3384 C   0  0  0  0  0  0  0  0  0  0  0  0
    0.5637    1.4661   -0.3981 C   0  0  0  0  0  0  0  0  0  0  0  0
   -0.4111    2.4043   -0.7713 C   0  0  0  0  0  0  0  0  0  0  0  0
   -1.7261    2.1690   -0.3932 C   0  0  0  0  0  0  0  0  0  0  0  0
   -2.0420    1.0183    0.3395 C   0  0  0  0  0  0  0  0  0  0  0  0
   -1.3087   -0.7843    1.2721 H   0  0  0  0  0  0  0  0  0  0  0  0
    1.0589   -0.3910    0.6288 H   0  0  0  0  0  0  0  0  0  0  0  0
   -0.1278    3.2852   -1.3365 H   0  0  0  0  0  0  0  0  0  0  0  0
   -2.5014    2.8768   -0.6659 H   0  0  0  0  0  0  0  0  0  0  0  0
    1.8700    1.7194   -0.8019 N   0  0  0  0  0  0  0  0  0  0  0  0
    2.9820    1.5542   -0.9384 N   0  0  0  0  0  0  0  0  0  0  0  0
    3.4490   -0.1013    1.3595 B   0  0  0  0  0  0  0  0  0  0  0  0
    3.4777   -0.0605   -0.1539 F   0  0  0  0  0  0  0  0  0  0  0  0
    4.7252   -0.2644    1.7999 F   0  0  0  0  0  0  0  0  0  0  0  0
    2.8698    1.1098    1.7329 F   0  0  0  0  0  0  0  0  0  0  0  0
    2.6050   -1.1685    1.6596 F   0  0  0  0  0  0  0  0  0  0  0  0
   -3.0710    0.8392    0.6358 H   0  0  0  0  0  0  0  0  0  0  0  0
  1  7  1  0  0  0  0
  2  8  1  0  0  0  0
  2  1  2  0  0  0  0
  3  2  1  0  0  0  0
  4  3  2  0  0  0  0
  4  5  1  0  0  0  0
  5  6  2  0  0  0  0
  6 18  1  0  0  0  0
  6  1  1  0  0  0  0
  9  4  1  0  0  0  0
 10  5  1  0  0  0  0
 11  3  1  0  0  0  0
 12 11  1  0  0  0  0
 13 17  1  0  0  0  0
 13 16  1  0  0  0  0
 13 15  1  0  0  0  0
 14 13  1  0  0  0  0
M  RAD  2  11   2  12   3
M  END
