Coordinates from ORCA-job Ph-N2-BF4-B3LYPG-6-31G_dp-scan-d09-49-n400
 OpenBabel08281821203D

 18 17  0  0  0  0  0  0  0  0999 V2000
   -1.1223    0.1066    0.8693 C   0  0  0  0  0  0  0  0  0  0  0  0
    0.1927    0.1564    0.4210 C   0  0  0  0  0  0  0  0  0  0  0  0
    0.5340    1.2390   -0.4019 C   0  0  0  0  0  0  0  0  0  0  0  0
   -0.3581    2.2566   -0.7835 C   0  0  0  0  0  0  0  0  0  0  0  0
   -1.6584    2.1747   -0.3062 C   0  0  0  0  0  0  0  0  0  0  0  0
   -2.0363    1.1046    0.5160 C   0  0  0  0  0  0  0  0  0  0  0  0
   -1.4302   -0.7125    1.5102 H   0  0  0  0  0  0  0  0  0  0  0  0
    0.9591   -0.5734    0.6608 H   0  0  0  0  0  0  0  0  0  0  0  0
   -0.0305    3.0733   -1.4169 H   0  0  0  0  0  0  0  0  0  0  0  0
   -2.3757    2.9435   -0.5723 H   0  0  0  0  0  0  0  0  0  0  0  0
    1.8219    1.3314   -0.9128 N   0  0  0  0  0  0  0  0  0  0  0  0
    2.7794    1.4868   -1.4550 N   0  0  0  0  0  0  0  0  0  0  0  0
    3.5233    0.0788    1.2294 B   0  0  0  0  0  0  0  0  0  0  0  0
    4.6648    0.5825    0.6190 F   0  0  0  0  0  0  0  0  0  0  0  0
    3.7739   -0.5862    2.4042 F   0  0  0  0  0  0  0  0  0  0  0  0
    2.6024    1.1576    1.4458 F   0  0  0  0  0  0  0  0  0  0  0  0
    2.8558   -0.7966    0.2926 F   0  0  0  0  0  0  0  0  0  0  0  0
   -3.0554    1.0529    0.8861 H   0  0  0  0  0  0  0  0  0  0  0  0
  1  7  1  0  0  0  0
  2  8  1  0  0  0  0
  2  1  2  0  0  0  0
  3  2  1  0  0  0  0
  4  3  2  0  0  0  0
  4  5  1  0  0  0  0
  5  6  2  0  0  0  0
  6  1  1  0  0  0  0
  6 18  1  0  0  0  0
  9  4  1  0  0  0  0
 10  5  1  0  0  0  0
 11  3  1  0  0  0  0
 12 11  1  0  0  0  0
 13 16  1  0  0  0  0
 13 15  1  0  0  0  0
 14 13  1  0  0  0  0
 17 13  1  0  0  0  0
M  RAD  2  11   2  12   3
M  END
