Coordinates from ORCA-job Ph-N2-BF4-B3LYPG-6-31G_dp-scan-d09-49-n400
 OpenBabel08281821203D

 18 17  0  0  0  0  0  0  0  0999 V2000
   -0.5367   -0.1768    0.4516 C   0  0  0  0  0  0  0  0  0  0  0  0
    0.5298   -0.0027   -0.4323 C   0  0  0  0  0  0  0  0  0  0  0  0
    0.7882    1.2707   -0.9688 C   0  0  0  0  0  0  0  0  0  0  0  0
   -0.0392    2.3476   -0.6256 C   0  0  0  0  0  0  0  0  0  0  0  0
   -1.0824    2.1703    0.2812 C   0  0  0  0  0  0  0  0  0  0  0  0
   -1.3362    0.9079    0.8211 C   0  0  0  0  0  0  0  0  0  0  0  0
   -0.7396   -1.1644    0.8546 H   0  0  0  0  0  0  0  0  0  0  0  0
    1.1380   -0.8535   -0.7184 H   0  0  0  0  0  0  0  0  0  0  0  0
    0.1547    3.3157   -1.0755 H   0  0  0  0  0  0  0  0  0  0  0  0
   -1.7061    3.0159    0.5552 H   0  0  0  0  0  0  0  0  0  0  0  0
    1.7778    1.5425   -1.9706 N   0  0  0  0  0  0  0  0  0  0  0  0
    2.9541    1.1348   -1.8424 N   0  0  0  0  0  0  0  0  0  0  0  0
    2.1601    0.3129    2.2500 B   0  0  0  0  0  0  0  0  0  0  0  0
    3.2122    0.5559   -0.8821 F   0  0  0  0  0  0  0  0  0  0  0  0
    2.8921   -0.6048    1.6434 F   0  0  0  0  0  0  0  0  0  0  0  0
    2.3743    1.5912    2.0086 F   0  0  0  0  0  0  0  0  0  0  0  0
    1.2572   -0.0526    3.1395 F   0  0  0  0  0  0  0  0  0  0  0  0
   -2.1578    0.7653    1.5164 H   0  0  0  0  0  0  0  0  0  0  0  0
  1  6  1  0  0  0  0
  1  7  1  0  0  0  0
  2  1  2  0  0  0  0
  3  4  2  0  0  0  0
  3  2  1  0  0  0  0
  4  5  1  0  0  0  0
  5 10  1  0  0  0  0
  5  6  2  0  0  0  0
  6 18  1  0  0  0  0
  8  2  1  0  0  0  0
  9  4  1  0  0  0  0
 11 12  2  0  0  0  0
 11  3  1  0  0  0  0
 12 14  1  0  0  0  0
 13 17  1  0  0  0  0
 15 13  1  0  0  0  0
 16 13  1  0  0  0  0
M  END
