Coordinates from ORCA-job Ph-N2-BF4-B3LYPG-6-31G_dp-scan-d09-49-n400
 OpenBabel08281821203D

 18 17  0  0  0  0  0  0  0  0999 V2000
   -1.0424    0.0956    0.6804 C   0  0  0  0  0  0  0  0  0  0  0  0
    0.2839    0.3032    0.3145 C   0  0  0  0  0  0  0  0  0  0  0  0
    0.5711    1.4712   -0.4120 C   0  0  0  0  0  0  0  0  0  0  0  0
   -0.4074    2.4109   -0.7698 C   0  0  0  0  0  0  0  0  0  0  0  0
   -1.7218    2.1738   -0.3891 C   0  0  0  0  0  0  0  0  0  0  0  0
   -2.0356    1.0174    0.3344 C   0  0  0  0  0  0  0  0  0  0  0  0
   -1.2978   -0.7935    1.2472 H   0  0  0  0  0  0  0  0  0  0  0  0
    1.0632   -0.3960    0.5931 H   0  0  0  0  0  0  0  0  0  0  0  0
   -0.1257    3.2969   -1.3280 H   0  0  0  0  0  0  0  0  0  0  0  0
   -2.4975    2.8846   -0.6524 H   0  0  0  0  0  0  0  0  0  0  0  0
    1.8757    1.7417   -0.8224 N   0  0  0  0  0  0  0  0  0  0  0  0
    2.9856    1.4972   -0.9114 N   0  0  0  0  0  0  0  0  0  0  0  0
    3.4393   -0.0943    1.3984 B   0  0  0  0  0  0  0  0  0  0  0  0
    3.3329   -0.0875   -0.1498 F   0  0  0  0  0  0  0  0  0  0  0  0
    4.7484   -0.2762    1.7036 F   0  0  0  0  0  0  0  0  0  0  0  0
    2.9229    1.1353    1.7700 F   0  0  0  0  0  0  0  0  0  0  0  0
    2.6090   -1.1402    1.7649 F   0  0  0  0  0  0  0  0  0  0  0  0
   -3.0632    0.8359    0.6342 H   0  0  0  0  0  0  0  0  0  0  0  0
  1  7  1  0  0  0  0
  2  8  1  0  0  0  0
  2  1  2  0  0  0  0
  3  2  1  0  0  0  0
  4  3  2  0  0  0  0
  4  5  1  0  0  0  0
  5  6  2  0  0  0  0
  6 18  1  0  0  0  0
  6  1  1  0  0  0  0
  9  4  1  0  0  0  0
 10  5  1  0  0  0  0
 11  3  1  0  0  0  0
 12 11  2  0  0  0  0
 13 15  1  0  0  0  0
 13 17  1  0  0  0  0
 13 16  1  0  0  0  0
 14 13  1  0  0  0  0
M  RAD  1  12   2
M  END
