Coordinates from ORCA-job Ph-N2-BF4-B3LYPG-6-31G_dp-scan-d09-49-n400
 OpenBabel08281821203D

 18 17  0  0  0  0  0  0  0  0999 V2000
   -1.0661    0.0940    0.6489 C   0  0  0  0  0  0  0  0  0  0  0  0
    0.2623    0.3024    0.2907 C   0  0  0  0  0  0  0  0  0  0  0  0
    0.5739    1.4734   -0.4248 C   0  0  0  0  0  0  0  0  0  0  0  0
   -0.4113    2.4114   -0.7719 C   0  0  0  0  0  0  0  0  0  0  0  0
   -1.7314    2.1789   -0.4047 C   0  0  0  0  0  0  0  0  0  0  0  0
   -2.0568    1.0195    0.3057 C   0  0  0  0  0  0  0  0  0  0  0  0
   -1.3274   -0.8003    1.2052 H   0  0  0  0  0  0  0  0  0  0  0  0
    1.0301   -0.4060    0.5647 H   0  0  0  0  0  0  0  0  0  0  0  0
   -0.1225    3.3015   -1.3198 H   0  0  0  0  0  0  0  0  0  0  0  0
   -2.5014    2.8962   -0.6685 H   0  0  0  0  0  0  0  0  0  0  0  0
    1.8708    1.8005   -0.8467 N   0  0  0  0  0  0  0  0  0  0  0  0
    2.9687    1.4025   -0.8516 N   0  0  0  0  0  0  0  0  0  0  0  0
    3.5089   -0.0904    1.5280 B   0  0  0  0  0  0  0  0  0  0  0  0
    3.0909   -0.0485   -0.1606 F   0  0  0  0  0  0  0  0  0  0  0  0
    4.8310   -0.3120    1.4962 F   0  0  0  0  0  0  0  0  0  0  0  0
    3.0922    1.1408    1.9123 F   0  0  0  0  0  0  0  0  0  0  0  0
    2.7155   -1.1254    1.9057 F   0  0  0  0  0  0  0  0  0  0  0  0
   -3.0868    0.8374    0.5972 H   0  0  0  0  0  0  0  0  0  0  0  0
  1  7  1  0  0  0  0
  2  8  1  0  0  0  0
  2  1  2  0  0  0  0
  3  2  1  0  0  0  0
  4  3  2  0  0  0  0
  4  5  1  0  0  0  0
  5  6  2  0  0  0  0
  6 18  1  0  0  0  0
  6  1  1  0  0  0  0
  9  4  1  0  0  0  0
 10  5  1  0  0  0  0
 11  3  1  0  0  0  0
 12 11  1  0  0  0  0
 12 14  1  0  0  0  0
 13 17  1  0  0  0  0
 13 16  1  0  0  0  0
 15 13  1  0  0  0  0
M  RAD  2  11   2  12   2
M  END
