Coordinates from ORCA-job Ph-N2-BF4-B3LYPG-6-31G_dp-scan-d09-49-n400
 OpenBabel08281821203D

 18 17  0  0  0  0  0  0  0  0999 V2000
   -0.9794    0.2647    1.1231 C   0  0  0  0  0  0  0  0  0  0  0  0
    0.2725    0.2840    0.5142 C   0  0  0  0  0  0  0  0  0  0  0  0
    0.4534    1.2409   -0.4966 C   0  0  0  0  0  0  0  0  0  0  0  0
   -0.5289    2.1642   -0.9066 C   0  0  0  0  0  0  0  0  0  0  0  0
   -1.7553    2.1156   -0.2631 C   0  0  0  0  0  0  0  0  0  0  0  0
   -1.9776    1.1671    0.7461 C   0  0  0  0  0  0  0  0  0  0  0  0
   -1.1665   -0.4577    1.9103 H   0  0  0  0  0  0  0  0  0  0  0  0
    1.0899   -0.3833    0.7955 H   0  0  0  0  0  0  0  0  0  0  0  0
   -0.3217    2.8829   -1.6917 H   0  0  0  0  0  0  0  0  0  0  0  0
   -2.5372    2.8123   -0.5451 H   0  0  0  0  0  0  0  0  0  0  0  0
    1.6504    1.2824   -1.1954 N   0  0  0  0  0  0  0  0  0  0  0  0
    2.5100    1.3512   -1.8998 N   0  0  0  0  0  0  0  0  0  0  0  0
    3.6167    0.0374    1.1551 B   0  0  0  0  0  0  0  0  0  0  0  0
    4.3488   -0.0276    2.3254 F   0  0  0  0  0  0  0  0  0  0  0  0
    2.7460   -1.0943    1.0541 F   0  0  0  0  0  0  0  0  0  0  0  0
    2.7631    1.1977    1.1404 F   0  0  0  0  0  0  0  0  0  0  0  0
    4.3986    0.1017   -0.0030 F   0  0  0  0  0  0  0  0  0  0  0  0
   -2.9424    1.1369    1.2430 H   0  0  0  0  0  0  0  0  0  0  0  0
  1  7  1  0  0  0  0
  2  8  1  0  0  0  0
  2  1  2  0  0  0  0
  3  2  1  0  0  0  0
  4  3  2  0  0  0  0
  4  5  1  0  0  0  0
  5  6  2  0  0  0  0
  6  1  1  0  0  0  0
  6 18  1  0  0  0  0
  9  4  1  0  0  0  0
 10  5  1  0  0  0  0
 11  3  1  0  0  0  0
 12 11  1  0  0  0  0
 13 14  1  0  0  0  0
 15 13  1  0  0  0  0
 16 13  1  0  0  0  0
 17 13  1  0  0  0  0
M  RAD  2  11   2  12   3
M  END
