Coordinates from ORCA-job Ph-N2-BF4-B3LYPG-6-31G_dp-scan-d09-49-n400
 OpenBabel08281821203D

 18 17  0  0  0  0  0  0  0  0999 V2000
   -1.1128    0.1222    0.8228 C   0  0  0  0  0  0  0  0  0  0  0  0
    0.2168    0.2455    0.4310 C   0  0  0  0  0  0  0  0  0  0  0  0
    0.5284    1.3550   -0.3687 C   0  0  0  0  0  0  0  0  0  0  0  0
   -0.4029    2.3266   -0.7799 C   0  0  0  0  0  0  0  0  0  0  0  0
   -1.7142    2.1704   -0.3566 C   0  0  0  0  0  0  0  0  0  0  0  0
   -2.0651    1.0717    0.4407 C   0  0  0  0  0  0  0  0  0  0  0  0
   -1.4020   -0.7204    1.4417 H   0  0  0  0  0  0  0  0  0  0  0  0
    1.0049   -0.4539    0.7091 H   0  0  0  0  0  0  0  0  0  0  0  0
   -0.0953    3.1640   -1.3964 H   0  0  0  0  0  0  0  0  0  0  0  0
   -2.4617    2.9009   -0.6462 H   0  0  0  0  0  0  0  0  0  0  0  0
    1.8260    1.5133   -0.8351 N   0  0  0  0  0  0  0  0  0  0  0  0
    2.8036    1.6956   -1.3337 N   0  0  0  0  0  0  0  0  0  0  0  0
    3.5574   -0.0673    1.2442 B   0  0  0  0  0  0  0  0  0  0  0  0
    4.4686    0.2717    0.2348 F   0  0  0  0  0  0  0  0  0  0  0  0
    4.1720   -0.3948    2.4253 F   0  0  0  0  0  0  0  0  0  0  0  0
    2.6749    1.0535    1.4314 F   0  0  0  0  0  0  0  0  0  0  0  0
    2.7363   -1.1376    0.7742 F   0  0  0  0  0  0  0  0  0  0  0  0
   -3.0943    0.9596    0.7672 H   0  0  0  0  0  0  0  0  0  0  0  0
  1  7  1  0  0  0  0
  2  8  1  0  0  0  0
  2  1  2  0  0  0  0
  3  2  1  0  0  0  0
  4  3  2  0  0  0  0
  4  5  1  0  0  0  0
  5  6  2  0  0  0  0
  6 18  1  0  0  0  0
  6  1  1  0  0  0  0
  9  4  1  0  0  0  0
 10  5  1  0  0  0  0
 11  3  1  0  0  0  0
 12 11  1  0  0  0  0
 13 16  1  0  0  0  0
 13 15  1  0  0  0  0
 14 13  1  0  0  0  0
 17 13  1  0  0  0  0
M  RAD  2  11   2  12   3
M  END
