Coordinates from ORCA-job Ph-N2-BF4-B3LYPG-6-31G_dp-scan-d09-49-n400
 OpenBabel08281821203D

 18 17  0  0  0  0  0  0  0  0999 V2000
   -0.5587   -0.1801    0.4882 C   0  0  0  0  0  0  0  0  0  0  0  0
    0.4794   -0.0562   -0.4394 C   0  0  0  0  0  0  0  0  0  0  0  0
    0.7691    1.1932   -1.0152 C   0  0  0  0  0  0  0  0  0  0  0  0
   -0.0077    2.3043   -0.6586 C   0  0  0  0  0  0  0  0  0  0  0  0
   -1.0382    2.1757    0.2716 C   0  0  0  0  0  0  0  0  0  0  0  0
   -1.3160    0.9359    0.8520 C   0  0  0  0  0  0  0  0  0  0  0  0
   -0.7782   -1.1518    0.9209 H   0  0  0  0  0  0  0  0  0  0  0  0
    1.0461   -0.9323   -0.7418 H   0  0  0  0  0  0  0  0  0  0  0  0
    0.2087    3.2619   -1.1219 H   0  0  0  0  0  0  0  0  0  0  0  0
   -1.6283    3.0465    0.5427 H   0  0  0  0  0  0  0  0  0  0  0  0
    1.7744    1.3512   -2.0323 N   0  0  0  0  0  0  0  0  0  0  0  0
    3.0018    1.1891   -1.6448 N   0  0  0  0  0  0  0  0  0  0  0  0
    2.1336    0.2760    2.1819 B   0  0  0  0  0  0  0  0  0  0  0  0
    3.1982    0.9966   -0.7563 F   0  0  0  0  0  0  0  0  0  0  0  0
    2.8878   -0.5765    1.5047 F   0  0  0  0  0  0  0  0  0  0  0  0
    2.2680    1.5703    1.9610 F   0  0  0  0  0  0  0  0  0  0  0  0
    1.3228   -0.1641    3.1211 F   0  0  0  0  0  0  0  0  0  0  0  0
   -2.1223    0.8362    1.5723 H   0  0  0  0  0  0  0  0  0  0  0  0
  1  6  1  0  0  0  0
  1  7  1  0  0  0  0
  2  1  2  0  0  0  0
  3  4  2  0  0  0  0
  3  2  1  0  0  0  0
  4  5  1  0  0  0  0
  5 10  1  0  0  0  0
  5  6  2  0  0  0  0
  6 18  1  0  0  0  0
  8  2  1  0  0  0  0
  9  4  1  0  0  0  0
 11 12  2  0  0  0  0
 11  3  1  0  0  0  0
 12 14  1  0  0  0  0
 13 17  1  0  0  0  0
 15 13  1  0  0  0  0
 16 13  1  0  0  0  0
M  END
