Coordinates from ORCA-job Ph-N2-BF4-B3LYPG-6-31G_dp-scan-d09-49-n400
 OpenBabel08281821203D

 18 17  0  0  0  0  0  0  0  0999 V2000
   -1.0454    0.2987    1.1636 C   0  0  0  0  0  0  0  0  0  0  0  0
    0.2336    0.3138    0.6147 C   0  0  0  0  0  0  0  0  0  0  0  0
    0.4582    1.2393   -0.4158 C   0  0  0  0  0  0  0  0  0  0  0  0
   -0.5139    2.1299   -0.9080 C   0  0  0  0  0  0  0  0  0  0  0  0
   -1.7717    2.0877   -0.3256 C   0  0  0  0  0  0  0  0  0  0  0  0
   -2.0337    1.1744    0.7054 C   0  0  0  0  0  0  0  0  0  0  0  0
   -1.2650   -0.4000    1.9637 H   0  0  0  0  0  0  0  0  0  0  0  0
    1.0434   -0.3380    0.9390 H   0  0  0  0  0  0  0  0  0  0  0  0
   -0.2762    2.8218   -1.7084 H   0  0  0  0  0  0  0  0  0  0  0  0
   -2.5472    2.7615   -0.6730 H   0  0  0  0  0  0  0  0  0  0  0  0
    1.6982    1.2755   -1.0359 N   0  0  0  0  0  0  0  0  0  0  0  0
    2.6455    1.3196   -1.6203 N   0  0  0  0  0  0  0  0  0  0  0  0
    3.6414    0.0403    1.0562 B   0  0  0  0  0  0  0  0  0  0  0  0
    4.5278   -0.1443    2.0880 F   0  0  0  0  0  0  0  0  0  0  0  0
    2.7722   -1.0801    0.9134 F   0  0  0  0  0  0  0  0  0  0  0  0
    2.8055    1.1774    1.2802 F   0  0  0  0  0  0  0  0  0  0  0  0
    4.2895    0.2496   -0.1857 F   0  0  0  0  0  0  0  0  0  0  0  0
   -3.0219    1.1490    1.1543 H   0  0  0  0  0  0  0  0  0  0  0  0
  1  7  1  0  0  0  0
  2  8  1  0  0  0  0
  2  1  2  0  0  0  0
  3  2  1  0  0  0  0
  4  3  2  0  0  0  0
  4  5  1  0  0  0  0
  5  6  2  0  0  0  0
  6 18  1  0  0  0  0
  6  1  1  0  0  0  0
  9  4  1  0  0  0  0
 10  5  1  0  0  0  0
 11  3  1  0  0  0  0
 12 11  1  0  0  0  0
 13 16  1  0  0  0  0
 13 14  1  0  0  0  0
 15 13  1  0  0  0  0
 17 13  1  0  0  0  0
M  RAD  2  11   2  12   3
M  END
