Coordinates from ORCA-job Ph-N2-BF4-B3LYPG-6-31G_dp-scan-d09-49-n400
 OpenBabel08281821203D

 18 17  0  0  0  0  0  0  0  0999 V2000
   -1.1187    0.1046    0.8696 C   0  0  0  0  0  0  0  0  0  0  0  0
    0.1947    0.1536    0.4165 C   0  0  0  0  0  0  0  0  0  0  0  0
    0.5341    1.2367   -0.4064 C   0  0  0  0  0  0  0  0  0  0  0  0
   -0.3581    2.2559   -0.7832 C   0  0  0  0  0  0  0  0  0  0  0  0
   -1.6567    2.1750   -0.3012 C   0  0  0  0  0  0  0  0  0  0  0  0
   -2.0328    1.1042    0.5209 C   0  0  0  0  0  0  0  0  0  0  0  0
   -1.4251   -0.7149    1.5107 H   0  0  0  0  0  0  0  0  0  0  0  0
    0.9613   -0.5771    0.6530 H   0  0  0  0  0  0  0  0  0  0  0  0
   -0.0318    3.0733   -1.4165 H   0  0  0  0  0  0  0  0  0  0  0  0
   -2.3740    2.9450   -0.5636 H   0  0  0  0  0  0  0  0  0  0  0  0
    1.8200    1.3281   -0.9223 N   0  0  0  0  0  0  0  0  0  0  0  0
    2.7747    1.4826   -1.4697 N   0  0  0  0  0  0  0  0  0  0  0  0
    3.5202    0.0830    1.2321 B   0  0  0  0  0  0  0  0  0  0  0  0
    4.6770    0.5761    0.6448 F   0  0  0  0  0  0  0  0  0  0  0  0
    3.7412   -0.5862    2.4108 F   0  0  0  0  0  0  0  0  0  0  0  0
    2.6040    1.1690    1.4334 F   0  0  0  0  0  0  0  0  0  0  0  0
    2.8612   -0.7860    0.2822 F   0  0  0  0  0  0  0  0  0  0  0  0
   -3.0507    1.0532    0.8947 H   0  0  0  0  0  0  0  0  0  0  0  0
  1  7  1  0  0  0  0
  2  8  1  0  0  0  0
  2  1  2  0  0  0  0
  3  2  1  0  0  0  0
  4  3  2  0  0  0  0
  4  5  1  0  0  0  0
  5  6  2  0  0  0  0
  6  1  1  0  0  0  0
  6 18  1  0  0  0  0
  9  4  1  0  0  0  0
 10  5  1  0  0  0  0
 11  3  1  0  0  0  0
 12 11  1  0  0  0  0
 13 16  1  0  0  0  0
 13 15  1  0  0  0  0
 14 13  1  0  0  0  0
 17 13  1  0  0  0  0
M  RAD  2  11   2  12   3
M  END
