Coordinates from ORCA-job Ph-N2-BF4-B3LYPG-6-31G_dp-scan-d09-49-n400
 OpenBabel08281821203D

 18 17  0  0  0  0  0  0  0  0999 V2000
   -1.1190    0.1240    0.8216 C   0  0  0  0  0  0  0  0  0  0  0  0
    0.2129    0.2468    0.4372 C   0  0  0  0  0  0  0  0  0  0  0  0
    0.5295    1.3552   -0.3624 C   0  0  0  0  0  0  0  0  0  0  0  0
   -0.3997    2.3254   -0.7809 C   0  0  0  0  0  0  0  0  0  0  0  0
   -1.7136    2.1701   -0.3650 C   0  0  0  0  0  0  0  0  0  0  0  0
   -2.0690    1.0728    0.4322 C   0  0  0  0  0  0  0  0  0  0  0  0
   -1.4118   -0.7177    1.4400 H   0  0  0  0  0  0  0  0  0  0  0  0
    0.9987   -0.4527    0.7210 H   0  0  0  0  0  0  0  0  0  0  0  0
   -0.0885    3.1615   -1.3974 H   0  0  0  0  0  0  0  0  0  0  0  0
   -2.4594    2.8999   -0.6604 H   0  0  0  0  0  0  0  0  0  0  0  0
    1.8305    1.5120   -0.8190 N   0  0  0  0  0  0  0  0  0  0  0  0
    2.8211    1.6839   -1.2961 N   0  0  0  0  0  0  0  0  0  0  0  0
    3.5555   -0.0658    1.2396 B   0  0  0  0  0  0  0  0  0  0  0  0
    4.4170    0.2959    0.1888 F   0  0  0  0  0  0  0  0  0  0  0  0
    4.2325   -0.3898    2.3865 F   0  0  0  0  0  0  0  0  0  0  0  0
    2.6687    1.0398    1.4700 F   0  0  0  0  0  0  0  0  0  0  0  0
    2.7354   -1.1467    0.7974 F   0  0  0  0  0  0  0  0  0  0  0  0
   -3.1002    0.9611    0.7528 H   0  0  0  0  0  0  0  0  0  0  0  0
  1  7  1  0  0  0  0
  2  8  1  0  0  0  0
  2  1  1  0  0  0  0
  3  2  2  0  0  0  0
  4  5  2  0  0  0  0
  4  3  1  0  0  0  0
  5  6  1  0  0  0  0
  6 18  1  0  0  0  0
  6  1  2  0  0  0  0
  9  4  1  0  0  0  0
 10  5  1  0  0  0  0
 11  3  1  0  0  0  0
 12 11  1  0  0  0  0
 13 16  1  0  0  0  0
 13 15  1  0  0  0  0
 14 13  1  0  0  0  0
 17 13  1  0  0  0  0
M  RAD  2  11   2  12   3
M  END
