Coordinates from ORCA-job Ph-N2-BF4-B3LYPG-6-31G_dp-scan-d09-49-n400
 OpenBabel08281821203D

 18 17  0  0  0  0  0  0  0  0999 V2000
   -1.0220    0.2865    1.1631 C   0  0  0  0  0  0  0  0  0  0  0  0
    0.2372    0.2661    0.5708 C   0  0  0  0  0  0  0  0  0  0  0  0
    0.4544    1.1932   -0.4600 C   0  0  0  0  0  0  0  0  0  0  0  0
   -0.5059    2.1166   -0.9150 C   0  0  0  0  0  0  0  0  0  0  0  0
   -1.7435    2.1076   -0.2904 C   0  0  0  0  0  0  0  0  0  0  0  0
   -1.9971    1.1965    0.7451 C   0  0  0  0  0  0  0  0  0  0  0  0
   -1.2351   -0.4089    1.9678 H   0  0  0  0  0  0  0  0  0  0  0  0
    1.0410   -0.4083    0.8619 H   0  0  0  0  0  0  0  0  0  0  0  0
   -0.2738    2.8081   -1.7174 H   0  0  0  0  0  0  0  0  0  0  0  0
   -2.5093    2.8073   -0.6067 H   0  0  0  0  0  0  0  0  0  0  0  0
    1.6770    1.2084   -1.1138 N   0  0  0  0  0  0  0  0  0  0  0  0
    2.5918    1.2628   -1.7462 N   0  0  0  0  0  0  0  0  0  0  0  0
    3.6176    0.0816    1.0899 B   0  0  0  0  0  0  0  0  0  0  0  0
    4.3783   -0.1464    2.2161 F   0  0  0  0  0  0  0  0  0  0  0  0
    2.8012   -1.0539    0.7877 F   0  0  0  0  0  0  0  0  0  0  0  0
    2.7167    1.1786    1.2793 F   0  0  0  0  0  0  0  0  0  0  0  0
    4.3805    0.3796   -0.0557 F   0  0  0  0  0  0  0  0  0  0  0  0
   -2.9687    1.2004    1.2295 H   0  0  0  0  0  0  0  0  0  0  0  0
  1  7  1  0  0  0  0
  2  8  1  0  0  0  0
  2  1  2  0  0  0  0
  3  2  1  0  0  0  0
  4  3  2  0  0  0  0
  4  5  1  0  0  0  0
  5  6  2  0  0  0  0
  6  1  1  0  0  0  0
  6 18  1  0  0  0  0
  9  4  1  0  0  0  0
 10  5  1  0  0  0  0
 11  3  1  0  0  0  0
 12 11  1  0  0  0  0
 13 16  1  0  0  0  0
 13 14  1  0  0  0  0
 15 13  1  0  0  0  0
 17 13  1  0  0  0  0
M  RAD  2  11   2  12   3
M  END
