Coordinates from ORCA-job Ph-N2-BF4-B3LYPG-6-31G_dp-scan-d09-49-n400
 OpenBabel08281821203D

 18 17  0  0  0  0  0  0  0  0999 V2000
   -1.0777    0.0939    0.8832 C   0  0  0  0  0  0  0  0  0  0  0  0
    0.2226    0.1490    0.3954 C   0  0  0  0  0  0  0  0  0  0  0  0
    0.5368    1.2342   -0.4347 C   0  0  0  0  0  0  0  0  0  0  0  0
   -0.3685    2.2516   -0.7837 C   0  0  0  0  0  0  0  0  0  0  0  0
   -1.6540    2.1644   -0.2681 C   0  0  0  0  0  0  0  0  0  0  0  0
   -2.0049    1.0902    0.5602 C   0  0  0  0  0  0  0  0  0  0  0  0
   -1.3629   -0.7280    1.5308 H   0  0  0  0  0  0  0  0  0  0  0  0
    0.9967   -0.5800    0.6119 H   0  0  0  0  0  0  0  0  0  0  0  0
   -0.0623    3.0722   -1.4226 H   0  0  0  0  0  0  0  0  0  0  0  0
   -2.3805    2.9327   -0.5094 H   0  0  0  0  0  0  0  0  0  0  0  0
    1.8060    1.3289   -0.9903 N   0  0  0  0  0  0  0  0  0  0  0  0
    2.7398    1.4787   -1.5724 N   0  0  0  0  0  0  0  0  0  0  0  0
    3.4923    0.1032    1.2441 B   0  0  0  0  0  0  0  0  0  0  0  0
    4.7845    0.4316    0.8881 F   0  0  0  0  0  0  0  0  0  0  0  0
    3.3949   -0.5846    2.4329 F   0  0  0  0  0  0  0  0  0  0  0  0
    2.6903    1.2943    1.2978 F   0  0  0  0  0  0  0  0  0  0  0  0
    2.9001   -0.6902    0.1828 F   0  0  0  0  0  0  0  0  0  0  0  0
   -3.0127    1.0338    0.9596 H   0  0  0  0  0  0  0  0  0  0  0  0
  1  7  1  0  0  0  0
  2  8  1  0  0  0  0
  2  1  2  0  0  0  0
  3  2  1  0  0  0  0
  4  3  2  0  0  0  0
  4  5  1  0  0  0  0
  5  6  2  0  0  0  0
  6  1  1  0  0  0  0
  6 18  1  0  0  0  0
  9  4  1  0  0  0  0
 10  5  1  0  0  0  0
 11  3  1  0  0  0  0
 12 11  1  0  0  0  0
 13 16  1  0  0  0  0
 13 15  1  0  0  0  0
 14 13  1  0  0  0  0
 17 13  1  0  0  0  0
M  RAD  2  11   2  12   3
M  END
