Coordinates from ORCA-job Ph-N2-BF4-B3LYPG-6-31G_dp-scan-d09-49-n400
 OpenBabel08281821203D

 18 17  0  0  0  0  0  0  0  0999 V2000
   -0.9898    0.2065    1.0351 C   0  0  0  0  0  0  0  0  0  0  0  0
    0.3167    0.3282    0.5723 C   0  0  0  0  0  0  0  0  0  0  0  0
    0.5508    1.3368   -0.3767 C   0  0  0  0  0  0  0  0  0  0  0  0
   -0.4456    2.2018   -0.8675 C   0  0  0  0  0  0  0  0  0  0  0  0
   -1.7341    2.0449   -0.3790 C   0  0  0  0  0  0  0  0  0  0  0  0
   -2.0026    1.0500    0.5701 C   0  0  0  0  0  0  0  0  0  0  0  0
   -1.2118   -0.5564    1.7736 H   0  0  0  0  0  0  0  0  0  0  0  0
    1.1194   -0.3112    0.9206 H   0  0  0  0  0  0  0  0  0  0  0  0
   -0.2019    2.9643   -1.5991 H   0  0  0  0  0  0  0  0  0  0  0  0
   -2.5255    2.6953   -0.7346 H   0  0  0  0  0  0  0  0  0  0  0  0
    1.8194    1.5305   -0.9045 N   0  0  0  0  0  0  0  0  0  0  0  0
    2.7847    1.7489   -1.4063 N   0  0  0  0  0  0  0  0  0  0  0  0
    3.4755   -0.0323    1.1179 B   0  0  0  0  0  0  0  0  0  0  0  0
    4.8450   -0.0264    1.1274 F   0  0  0  0  0  0  0  0  0  0  0  0
    2.8882   -0.8289    2.1033 F   0  0  0  0  0  0  0  0  0  0  0  0
    2.9695    1.2997    1.2558 F   0  0  0  0  0  0  0  0  0  0  0  0
    2.9953   -0.5107   -0.1531 F   0  0  0  0  0  0  0  0  0  0  0  0
   -3.0128    0.9351    0.9505 H   0  0  0  0  0  0  0  0  0  0  0  0
  1  7  1  0  0  0  0
  2  8  1  0  0  0  0
  2  1  1  0  0  0  0
  3  2  2  0  0  0  0
  4  5  2  0  0  0  0
  4  3  1  0  0  0  0
  5  6  1  0  0  0  0
  6 18  1  0  0  0  0
  6  1  2  0  0  0  0
  9  4  1  0  0  0  0
 10  5  1  0  0  0  0
 11  3  1  0  0  0  0
 12 11  1  0  0  0  0
 13 14  1  0  0  0  0
 13 16  1  0  0  0  0
 13 15  1  0  0  0  0
 17 13  1  0  0  0  0
M  RAD  2  11   2  12   3
M  END
