Coordinates from ORCA-job Ph-N2-BF4-B3LYPG-6-31G_dp-scan-d09-49-n400
 OpenBabel08281821203D

 18 17  0  0  0  0  0  0  0  0999 V2000
   -1.1203    0.1247    0.8213 C   0  0  0  0  0  0  0  0  0  0  0  0
    0.2121    0.2476    0.4387 C   0  0  0  0  0  0  0  0  0  0  0  0
    0.5298    1.3557   -0.3611 C   0  0  0  0  0  0  0  0  0  0  0  0
   -0.3992    2.3252   -0.7815 C   0  0  0  0  0  0  0  0  0  0  0  0
   -1.7137    2.1698   -0.3675 C   0  0  0  0  0  0  0  0  0  0  0  0
   -2.0700    1.0730    0.4299 C   0  0  0  0  0  0  0  0  0  0  0  0
   -1.4138   -0.7167    1.4397 H   0  0  0  0  0  0  0  0  0  0  0  0
    0.9972   -0.4518    0.7241 H   0  0  0  0  0  0  0  0  0  0  0  0
   -0.0874    3.1609   -1.3981 H   0  0  0  0  0  0  0  0  0  0  0  0
   -2.4594    2.8991   -0.6645 H   0  0  0  0  0  0  0  0  0  0  0  0
    1.8317    1.5126   -0.8147 N   0  0  0  0  0  0  0  0  0  0  0  0
    2.8264    1.6815   -1.2844 N   0  0  0  0  0  0  0  0  0  0  0  0
    3.5547   -0.0658    1.2385 B   0  0  0  0  0  0  0  0  0  0  0  0
    4.4025    0.3008    0.1762 F   0  0  0  0  0  0  0  0  0  0  0  0
    4.2489   -0.3888    2.3753 F   0  0  0  0  0  0  0  0  0  0  0  0
    2.6683    1.0363    1.4804 F   0  0  0  0  0  0  0  0  0  0  0  0
    2.7345   -1.1492    0.8045 F   0  0  0  0  0  0  0  0  0  0  0  0
   -3.1016    0.9611    0.7491 H   0  0  0  0  0  0  0  0  0  0  0  0
  1  7  1  0  0  0  0
  2  8  1  0  0  0  0
  2  1  1  0  0  0  0
  3  2  2  0  0  0  0
  4  5  2  0  0  0  0
  4  3  1  0  0  0  0
  5  6  1  0  0  0  0
  6 18  1  0  0  0  0
  6  1  2  0  0  0  0
  9  4  1  0  0  0  0
 10  5  1  0  0  0  0
 11  3  1  0  0  0  0
 12 11  1  0  0  0  0
 13 16  1  0  0  0  0
 13 15  1  0  0  0  0
 14 13  1  0  0  0  0
 17 13  1  0  0  0  0
M  RAD  2  11   2  12   3
M  END
