Coordinates from ORCA-job Ph-N2-BF4-B3LYPG-6-31G_dp-scan-d09-49-n400
 OpenBabel08281821203D

 18 17  0  0  0  0  0  0  0  0999 V2000
   -1.0070    0.2864    1.1597 C   0  0  0  0  0  0  0  0  0  0  0  0
    0.2481    0.2700    0.5583 C   0  0  0  0  0  0  0  0  0  0  0  0
    0.4537    1.1995   -0.4733 C   0  0  0  0  0  0  0  0  0  0  0  0
   -0.5130    2.1219   -0.9185 C   0  0  0  0  0  0  0  0  0  0  0  0
   -1.7453    2.1084   -0.2842 C   0  0  0  0  0  0  0  0  0  0  0  0
   -1.9881    1.1942    0.7512 C   0  0  0  0  0  0  0  0  0  0  0  0
   -1.2115   -0.4106    1.9652 H   0  0  0  0  0  0  0  0  0  0  0  0
    1.0552   -0.4022    0.8475 H   0  0  0  0  0  0  0  0  0  0  0  0
   -0.2892    2.8152   -1.7216 H   0  0  0  0  0  0  0  0  0  0  0  0
   -2.5154    2.8068   -0.5930 H   0  0  0  0  0  0  0  0  0  0  0  0
    1.6669    1.2195   -1.1439 N   0  0  0  0  0  0  0  0  0  0  0  0
    2.5636    1.2821   -1.8009 N   0  0  0  0  0  0  0  0  0  0  0  0
    3.6161    0.0721    1.1088 B   0  0  0  0  0  0  0  0  0  0  0  0
    4.3436   -0.1474    2.2608 F   0  0  0  0  0  0  0  0  0  0  0  0
    2.7976   -1.0625    0.8031 F   0  0  0  0  0  0  0  0  0  0  0  0
    2.7148    1.1772    1.2621 F   0  0  0  0  0  0  0  0  0  0  0  0
    4.4061    0.3509   -0.0187 F   0  0  0  0  0  0  0  0  0  0  0  0
   -2.9558    1.1944    1.2433 H   0  0  0  0  0  0  0  0  0  0  0  0
  1  7  1  0  0  0  0
  2  8  1  0  0  0  0
  2  1  2  0  0  0  0
  3  2  1  0  0  0  0
  4  3  2  0  0  0  0
  4  5  1  0  0  0  0
  5  6  2  0  0  0  0
  6  1  1  0  0  0  0
  6 18  1  0  0  0  0
  9  4  1  0  0  0  0
 10  5  1  0  0  0  0
 11  3  1  0  0  0  0
 12 11  1  0  0  0  0
 13 16  1  0  0  0  0
 13 14  1  0  0  0  0
 15 13  1  0  0  0  0
 17 13  1  0  0  0  0
M  RAD  2  11   2  12   3
M  END
