Coordinates from ORCA-job Ph-N2-BF4-B3LYPG-6-31G_dp-scan-d09-49-n400
 OpenBabel08281821203D

 18 17  0  0  0  0  0  0  0  0999 V2000
   -1.1334    0.1339    0.8174 C   0  0  0  0  0  0  0  0  0  0  0  0
    0.2036    0.2592    0.4517 C   0  0  0  0  0  0  0  0  0  0  0  0
    0.5324    1.3628   -0.3512 C   0  0  0  0  0  0  0  0  0  0  0  0
   -0.3965    2.3225   -0.7912 C   0  0  0  0  0  0  0  0  0  0  0  0
   -1.7168    2.1668   -0.3949 C   0  0  0  0  0  0  0  0  0  0  0  0
   -2.0811    1.0754    0.4057 C   0  0  0  0  0  0  0  0  0  0  0  0
   -1.4324   -0.7047    1.4372 H   0  0  0  0  0  0  0  0  0  0  0  0
    0.9806   -0.4396    0.7549 H   0  0  0  0  0  0  0  0  0  0  0  0
   -0.0789    3.1541   -1.4104 H   0  0  0  0  0  0  0  0  0  0  0  0
   -2.4609    2.8907   -0.7084 H   0  0  0  0  0  0  0  0  0  0  0  0
    1.8432    1.5222   -0.7746 N   0  0  0  0  0  0  0  0  0  0  0  0
    2.8907    1.6383   -1.1433 N   0  0  0  0  0  0  0  0  0  0  0  0
    3.5437   -0.0679    1.2341 B   0  0  0  0  0  0  0  0  0  0  0  0
    4.2296    0.3605    0.0520 F   0  0  0  0  0  0  0  0  0  0  0  0
    4.4257   -0.3750    2.2324 F   0  0  0  0  0  0  0  0  0  0  0  0
    2.6735    0.9923    1.6049 F   0  0  0  0  0  0  0  0  0  0  0  0
    2.7343   -1.1774    0.8785 F   0  0  0  0  0  0  0  0  0  0  0  0
   -3.1168    0.9616    0.7109 H   0  0  0  0  0  0  0  0  0  0  0  0
  1  7  1  0  0  0  0
  2  8  1  0  0  0  0
  2  1  1  0  0  0  0
  3  2  2  0  0  0  0
  4  5  2  0  0  0  0
  4  3  1  0  0  0  0
  5  6  1  0  0  0  0
  6 18  1  0  0  0  0
  6  1  2  0  0  0  0
  9  4  1  0  0  0  0
 10  5  1  0  0  0  0
 11  3  1  0  0  0  0
 12 11  1  0  0  0  0
 13 16  1  0  0  0  0
 13 15  1  0  0  0  0
 14 13  1  0  0  0  0
 17 13  1  0  0  0  0
M  RAD  2  11   2  12   3
M  END
