Coordinates from ORCA-job Ph-N2-BF4-B3LYPG-6-31G_dp-scan-d09-49-n400
 OpenBabel08281821203D

 18 17  0  0  0  0  0  0  0  0999 V2000
   -1.1231    0.1261    0.8209 C   0  0  0  0  0  0  0  0  0  0  0  0
    0.2103    0.2492    0.4416 C   0  0  0  0  0  0  0  0  0  0  0  0
    0.5302    1.3565   -0.3586 C   0  0  0  0  0  0  0  0  0  0  0  0
   -0.3984    2.3244   -0.7830 C   0  0  0  0  0  0  0  0  0  0  0  0
   -1.7140    2.1692   -0.3724 C   0  0  0  0  0  0  0  0  0  0  0  0
   -2.0721    1.0734    0.4255 C   0  0  0  0  0  0  0  0  0  0  0  0
   -1.4178   -0.7147    1.4395 H   0  0  0  0  0  0  0  0  0  0  0  0
    0.9941   -0.4504    0.7300 H   0  0  0  0  0  0  0  0  0  0  0  0
   -0.0852    3.1594   -1.4000 H   0  0  0  0  0  0  0  0  0  0  0  0
   -2.4592    2.8975   -0.6727 H   0  0  0  0  0  0  0  0  0  0  0  0
    1.8339    1.5131   -0.8065 N   0  0  0  0  0  0  0  0  0  0  0  0
    2.8374    1.6762   -1.2601 N   0  0  0  0  0  0  0  0  0  0  0  0
    3.5531   -0.0654    1.2366 B   0  0  0  0  0  0  0  0  0  0  0  0
    4.3740    0.3109    0.1522 F   0  0  0  0  0  0  0  0  0  0  0  0
    4.2807   -0.3875    2.3522 F   0  0  0  0  0  0  0  0  0  0  0  0
    2.6686    1.0299    1.5015 F   0  0  0  0  0  0  0  0  0  0  0  0
    2.7326   -1.1532    0.8173 F   0  0  0  0  0  0  0  0  0  0  0  0
   -3.1046    0.9614    0.7419 H   0  0  0  0  0  0  0  0  0  0  0  0
  1  7  1  0  0  0  0
  2  8  1  0  0  0  0
  2  1  1  0  0  0  0
  3  2  2  0  0  0  0
  4  5  2  0  0  0  0
  4  3  1  0  0  0  0
  5  6  1  0  0  0  0
  6 18  1  0  0  0  0
  6  1  2  0  0  0  0
  9  4  1  0  0  0  0
 10  5  1  0  0  0  0
 11  3  1  0  0  0  0
 12 11  1  0  0  0  0
 13 16  1  0  0  0  0
 13 15  1  0  0  0  0
 14 13  1  0  0  0  0
 17 13  1  0  0  0  0
M  RAD  2  11   2  12   3
M  END
