Coordinates from ORCA-job Ph-N2-BF4-B3LYPG-6-31G_dp-scan-d09-49-n400
 OpenBabel08281821203D

 18 17  0  0  0  0  0  0  0  0999 V2000
   -1.1051    0.0989    0.8721 C   0  0  0  0  0  0  0  0  0  0  0  0
    0.2031    0.1480    0.4047 C   0  0  0  0  0  0  0  0  0  0  0  0
    0.5348    1.2328   -0.4191 C   0  0  0  0  0  0  0  0  0  0  0  0
   -0.3601    2.2544   -0.7823 C   0  0  0  0  0  0  0  0  0  0  0  0
   -1.6536    2.1733   -0.2863 C   0  0  0  0  0  0  0  0  0  0  0  0
   -2.0220    1.1004    0.5364 C   0  0  0  0  0  0  0  0  0  0  0  0
   -1.4048   -0.7221    1.5144 H   0  0  0  0  0  0  0  0  0  0  0  0
    0.9713   -0.5842    0.6311 H   0  0  0  0  0  0  0  0  0  0  0  0
   -0.0401    3.0737   -1.4163 H   0  0  0  0  0  0  0  0  0  0  0  0
   -2.3728    2.9450   -0.5382 H   0  0  0  0  0  0  0  0  0  0  0  0
    1.8143    1.3233   -0.9507 N   0  0  0  0  0  0  0  0  0  0  0  0
    2.7603    1.4747   -1.5132 N   0  0  0  0  0  0  0  0  0  0  0  0
    3.5099    0.0940    1.2390 B   0  0  0  0  0  0  0  0  0  0  0  0
    4.7211    0.5348    0.7319 F   0  0  0  0  0  0  0  0  0  0  0  0
    3.6200   -0.5856    2.4285 F   0  0  0  0  0  0  0  0  0  0  0  0
    2.6250    1.2158    1.3847 F   0  0  0  0  0  0  0  0  0  0  0  0
    2.8747   -0.7502    0.2480 F   0  0  0  0  0  0  0  0  0  0  0  0
   -3.0358    1.0491    0.9210 H   0  0  0  0  0  0  0  0  0  0  0  0
  1  7  1  0  0  0  0
  2  8  1  0  0  0  0
  2  1  2  0  0  0  0
  3  2  1  0  0  0  0
  4  3  2  0  0  0  0
  4  5  1  0  0  0  0
  5  6  2  0  0  0  0
  6  1  1  0  0  0  0
  6 18  1  0  0  0  0
  9  4  1  0  0  0  0
 10  5  1  0  0  0  0
 11  3  1  0  0  0  0
 12 11  1  0  0  0  0
 13 16  1  0  0  0  0
 13 15  1  0  0  0  0
 14 13  1  0  0  0  0
 17 13  1  0  0  0  0
M  RAD  2  11   2  12   3
M  END
