Coordinates from ORCA-job Ph-N2-BF4-B3LYPG-6-31G_dp-scan-d09-49-n400
 OpenBabel08281821203D

 18 17  0  0  0  0  0  0  0  0999 V2000
   -0.5371   -0.1705    0.4460 C   0  0  0  0  0  0  0  0  0  0  0  0
    0.5474    0.0196   -0.4114 C   0  0  0  0  0  0  0  0  0  0  0  0
    0.7972    1.2998   -0.9381 C   0  0  0  0  0  0  0  0  0  0  0  0
   -0.0578    2.3622   -0.6143 C   0  0  0  0  0  0  0  0  0  0  0  0
   -1.1170    2.1689    0.2696 C   0  0  0  0  0  0  0  0  0  0  0  0
   -1.3613    0.9012    0.8006 C   0  0  0  0  0  0  0  0  0  0  0  0
   -0.7343   -1.1618    0.8425 H   0  0  0  0  0  0  0  0  0  0  0  0
    1.1764   -0.8196   -0.6794 H   0  0  0  0  0  0  0  0  0  0  0  0
    0.1316    3.3324   -1.0610 H   0  0  0  0  0  0  0  0  0  0  0  0
   -1.7601    3.0038    0.5309 H   0  0  0  0  0  0  0  0  0  0  0  0
    1.8039    1.6212   -1.9001 N   0  0  0  0  0  0  0  0  0  0  0  0
    2.9506    1.1481   -1.8739 N   0  0  0  0  0  0  0  0  0  0  0  0
    2.1894    0.3131    2.2552 B   0  0  0  0  0  0  0  0  0  0  0  0
    3.2016    0.3797   -0.9457 F   0  0  0  0  0  0  0  0  0  0  0  0
    2.8864   -0.6410    1.6659 F   0  0  0  0  0  0  0  0  0  0  0  0
    2.4306    1.5785    1.9751 F   0  0  0  0  0  0  0  0  0  0  0  0
    1.2880   -0.0029    3.1661 F   0  0  0  0  0  0  0  0  0  0  0  0
   -2.1950    0.7435    1.4780 H   0  0  0  0  0  0  0  0  0  0  0  0
  1  6  1  0  0  0  0
  1  7  1  0  0  0  0
  2  1  2  0  0  0  0
  3  4  2  0  0  0  0
  3  2  1  0  0  0  0
  4  5  1  0  0  0  0
  5 10  1  0  0  0  0
  5  6  2  0  0  0  0
  6 18  1  0  0  0  0
  8  2  1  0  0  0  0
  9  4  1  0  0  0  0
 11 12  2  0  0  0  0
 11  3  1  0  0  0  0
 12 14  1  0  0  0  0
 13 17  1  0  0  0  0
 15 13  1  0  0  0  0
 16 13  1  0  0  0  0
M  END
