Coordinates from ORCA-job Ph-N2-BF4-B3LYPG-6-31G_dp-scan-d09-49-n400
 OpenBabel08281821203D

 18 17  0  0  0  0  0  0  0  0999 V2000
   -0.9910    0.2739    1.0812 C   0  0  0  0  0  0  0  0  0  0  0  0
    0.3045    0.4138    0.5903 C   0  0  0  0  0  0  0  0  0  0  0  0
    0.4887    1.3909   -0.4037 C   0  0  0  0  0  0  0  0  0  0  0  0
   -0.5383    2.2066   -0.9104 C   0  0  0  0  0  0  0  0  0  0  0  0
   -1.8129    2.0331   -0.3920 C   0  0  0  0  0  0  0  0  0  0  0  0
   -2.0351    1.0692    0.6009 C   0  0  0  0  0  0  0  0  0  0  0  0
   -1.1784   -0.4642    1.8539 H   0  0  0  0  0  0  0  0  0  0  0  0
    1.1316   -0.1876    0.9661 H   0  0  0  0  0  0  0  0  0  0  0  0
   -0.3278    2.9426   -1.6785 H   0  0  0  0  0  0  0  0  0  0  0  0
   -2.6305    2.6444   -0.7575 H   0  0  0  0  0  0  0  0  0  0  0  0
    1.7539    1.5636   -0.9392 N   0  0  0  0  0  0  0  0  0  0  0  0
    2.8099    1.5947   -1.2921 N   0  0  0  0  0  0  0  0  0  0  0  0
    3.5770   -0.0771    1.0835 B   0  0  0  0  0  0  0  0  0  0  0  0
    4.8778   -0.1644    1.4903 F   0  0  0  0  0  0  0  0  0  0  0  0
    2.7164   -0.9639    1.7654 F   0  0  0  0  0  0  0  0  0  0  0  0
    3.0662    1.2396    1.2605 F   0  0  0  0  0  0  0  0  0  0  0  0
    3.4638   -0.3797   -0.3162 F   0  0  0  0  0  0  0  0  0  0  0  0
   -3.0351    0.9405    1.0035 H   0  0  0  0  0  0  0  0  0  0  0  0
  1  7  1  0  0  0  0
  2  8  1  0  0  0  0
  2  1  2  0  0  0  0
  3  2  1  0  0  0  0
  4  3  2  0  0  0  0
  4  5  1  0  0  0  0
  5  6  2  0  0  0  0
  6 18  1  0  0  0  0
  6  1  1  0  0  0  0
  9  4  1  0  0  0  0
 10  5  1  0  0  0  0
 11  3  1  0  0  0  0
 12 11  1  0  0  0  0
 13 16  1  0  0  0  0
 13 14  1  0  0  0  0
 13 15  1  0  0  0  0
 17 13  1  0  0  0  0
M  RAD  2  11   2  12   3
M  END
