Coordinates from ORCA-job Ph-N2-BF4-B3LYPG-6-31G_dp-scan-d09-49-n400
 OpenBabel08281821203D

 18 17  0  0  0  0  0  0  0  0999 V2000
   -1.0611    0.1043    0.7134 C   0  0  0  0  0  0  0  0  0  0  0  0
    0.2692    0.3024    0.3558 C   0  0  0  0  0  0  0  0  0  0  0  0
    0.5587    1.4580   -0.3892 C   0  0  0  0  0  0  0  0  0  0  0  0
   -0.4121    2.3966   -0.7734 C   0  0  0  0  0  0  0  0  0  0  0  0
   -1.7282    2.1676   -0.3958 C   0  0  0  0  0  0  0  0  0  0  0  0
   -2.0487    1.0231    0.3450 C   0  0  0  0  0  0  0  0  0  0  0  0
   -1.3233   -0.7748    1.2924 H   0  0  0  0  0  0  0  0  0  0  0  0
    1.0500   -0.3919    0.6529 H   0  0  0  0  0  0  0  0  0  0  0  0
   -0.1255    3.2721   -1.3453 H   0  0  0  0  0  0  0  0  0  0  0  0
   -2.5009    2.8752   -0.6756 H   0  0  0  0  0  0  0  0  0  0  0  0
    1.8657    1.7007   -0.7924 N   0  0  0  0  0  0  0  0  0  0  0  0
    2.9767    1.5821   -0.9573 N   0  0  0  0  0  0  0  0  0  0  0  0
    3.4610   -0.1042    1.3381 B   0  0  0  0  0  0  0  0  0  0  0  0
    3.5818   -0.0208   -0.1537 F   0  0  0  0  0  0  0  0  0  0  0  0
    4.7071   -0.2600    1.8634 F   0  0  0  0  0  0  0  0  0  0  0  0
    2.8355    1.0869    1.7163 F   0  0  0  0  0  0  0  0  0  0  0  0
    2.6135   -1.1905    1.5711 F   0  0  0  0  0  0  0  0  0  0  0  0
   -3.0789    0.8491    0.6400 H   0  0  0  0  0  0  0  0  0  0  0  0
  1  7  1  0  0  0  0
  2  8  1  0  0  0  0
  2  1  1  0  0  0  0
  3  2  2  0  0  0  0
  4  5  2  0  0  0  0
  4  3  1  0  0  0  0
  5  6  1  0  0  0  0
  6 18  1  0  0  0  0
  6  1  2  0  0  0  0
  9  4  1  0  0  0  0
 10  5  1  0  0  0  0
 11  3  1  0  0  0  0
 12 11  1  0  0  0  0
 13 17  1  0  0  0  0
 13 16  1  0  0  0  0
 13 15  1  0  0  0  0
 14 13  1  0  0  0  0
M  RAD  2  11   2  12   3
M  END
