Coordinates from ORCA-job Ph-N2-BF4-B3LYPG-6-31G_dp-scan-d09-49-n400
 OpenBabel08281821203D

 18 17  0  0  0  0  0  0  0  0999 V2000
   -0.9700    0.2679    1.1251 C   0  0  0  0  0  0  0  0  0  0  0  0
    0.2781    0.2897    0.5085 C   0  0  0  0  0  0  0  0  0  0  0  0
    0.4505    1.2461   -0.5039 C   0  0  0  0  0  0  0  0  0  0  0  0
   -0.5371    2.1660   -0.9104 C   0  0  0  0  0  0  0  0  0  0  0  0
   -1.7595    2.1142   -0.2602 C   0  0  0  0  0  0  0  0  0  0  0  0
   -1.9729    1.1668    0.7524 C   0  0  0  0  0  0  0  0  0  0  0  0
   -1.1504   -0.4539    1.9144 H   0  0  0  0  0  0  0  0  0  0  0  0
    1.0997   -0.3756    0.7835 H   0  0  0  0  0  0  0  0  0  0  0  0
   -0.3365    2.8838   -1.6980 H   0  0  0  0  0  0  0  0  0  0  0  0
   -2.5454    2.8074   -0.5395 H   0  0  0  0  0  0  0  0  0  0  0  0
    1.6433    1.2913   -1.2095 N   0  0  0  0  0  0  0  0  0  0  0  0
    2.4929    1.3693   -1.9252 N   0  0  0  0  0  0  0  0  0  0  0  0
    3.6193    0.0280    1.1631 B   0  0  0  0  0  0  0  0  0  0  0  0
    4.3098   -0.0330    2.3586 F   0  0  0  0  0  0  0  0  0  0  0  0
    2.7418   -1.0981    1.0438 F   0  0  0  0  0  0  0  0  0  0  0  0
    2.7723    1.1944    1.1136 F   0  0  0  0  0  0  0  0  0  0  0  0
    4.4395    0.0770    0.0348 F   0  0  0  0  0  0  0  0  0  0  0  0
   -2.9348    1.1348    1.2548 H   0  0  0  0  0  0  0  0  0  0  0  0
  1  7  1  0  0  0  0
  2  8  1  0  0  0  0
  2  1  2  0  0  0  0
  3  2  1  0  0  0  0
  4  3  2  0  0  0  0
  4  5  1  0  0  0  0
  5  6  2  0  0  0  0
  6  1  1  0  0  0  0
  6 18  1  0  0  0  0
  9  4  1  0  0  0  0
 10  5  1  0  0  0  0
 11  3  1  0  0  0  0
 12 11  1  0  0  0  0
 13 14  1  0  0  0  0
 15 13  1  0  0  0  0
 16 13  1  0  0  0  0
 17 13  1  0  0  0  0
M  RAD  2  11   2  12   3
M  END
