Coordinates from ORCA-job Ph-N2-BF4-B3LYPG-6-31G_dp-scan-d09-49-n400
 OpenBabel08281821203D

 18 17  0  0  0  0  0  0  0  0999 V2000
   -0.9630    0.2705    1.1261 C   0  0  0  0  0  0  0  0  0  0  0  0
    0.2825    0.2938    0.5040 C   0  0  0  0  0  0  0  0  0  0  0  0
    0.4482    1.2498   -0.5101 C   0  0  0  0  0  0  0  0  0  0  0  0
   -0.5434    2.1669   -0.9136 C   0  0  0  0  0  0  0  0  0  0  0  0
   -1.7628    2.1130   -0.2583 C   0  0  0  0  0  0  0  0  0  0  0  0
   -1.9694    1.1667    0.7568 C   0  0  0  0  0  0  0  0  0  0  0  0
   -1.1383   -0.4506    1.9172 H   0  0  0  0  0  0  0  0  0  0  0  0
    1.1059   -0.3709    0.7760 H   0  0  0  0  0  0  0  0  0  0  0  0
   -0.3479    2.8840   -1.7031 H   0  0  0  0  0  0  0  0  0  0  0  0
   -2.5516    2.8039   -0.5353 H   0  0  0  0  0  0  0  0  0  0  0  0
    1.6372    1.2993   -1.2218 N   0  0  0  0  0  0  0  0  0  0  0  0
    2.4793    1.3849   -1.9455 N   0  0  0  0  0  0  0  0  0  0  0  0
    3.6216    0.0205    1.1704 B   0  0  0  0  0  0  0  0  0  0  0  0
    4.2828   -0.0376    2.3828 F   0  0  0  0  0  0  0  0  0  0  0  0
    2.7397   -1.1012    1.0376 F   0  0  0  0  0  0  0  0  0  0  0  0
    2.7803    1.1909    1.0957 F   0  0  0  0  0  0  0  0  0  0  0  0
    4.4684    0.0585    0.0635 F   0  0  0  0  0  0  0  0  0  0  0  0
   -2.9290    1.1334    1.2636 H   0  0  0  0  0  0  0  0  0  0  0  0
  1  7  1  0  0  0  0
  2  8  1  0  0  0  0
  2  1  2  0  0  0  0
  3  2  1  0  0  0  0
  4  3  2  0  0  0  0
  4  5  1  0  0  0  0
  5  6  2  0  0  0  0
  6  1  1  0  0  0  0
  6 18  1  0  0  0  0
  9  4  1  0  0  0  0
 10  5  1  0  0  0  0
 11  3  1  0  0  0  0
 12 11  1  0  0  0  0
 13 14  1  0  0  0  0
 15 13  1  0  0  0  0
 16 13  1  0  0  0  0
 17 13  1  0  0  0  0
M  RAD  2  11   2  12   3
M  END
