Coordinates from ORCA-job Ph-N2-BF4-B3LYPG-6-31G_dp-scan-d09-49-n400
 OpenBabel08281821203D

 18 17  0  0  0  0  0  0  0  0999 V2000
   -1.0576    0.0945    0.6592 C   0  0  0  0  0  0  0  0  0  0  0  0
    0.2706    0.3039    0.3016 C   0  0  0  0  0  0  0  0  0  0  0  0
    0.5754    1.4738   -0.4173 C   0  0  0  0  0  0  0  0  0  0  0  0
   -0.4082    2.4109   -0.7701 C   0  0  0  0  0  0  0  0  0  0  0  0
   -1.7273    2.1758   -0.4021 C   0  0  0  0  0  0  0  0  0  0  0  0
   -2.0495    1.0174    0.3121 C   0  0  0  0  0  0  0  0  0  0  0  0
   -1.3174   -0.7981    1.2188 H   0  0  0  0  0  0  0  0  0  0  0  0
    1.0414   -0.4009    0.5801 H   0  0  0  0  0  0  0  0  0  0  0  0
   -0.1211    3.2997   -1.3210 H   0  0  0  0  0  0  0  0  0  0  0  0
   -2.4992    2.8901   -0.6682 H   0  0  0  0  0  0  0  0  0  0  0  0
    1.8751    1.7865   -0.8343 N   0  0  0  0  0  0  0  0  0  0  0  0
    2.9769    1.4251   -0.8570 N   0  0  0  0  0  0  0  0  0  0  0  0
    3.4804   -0.0893    1.4780 B   0  0  0  0  0  0  0  0  0  0  0  0
    3.1463   -0.0595   -0.1527 F   0  0  0  0  0  0  0  0  0  0  0  0
    4.8070   -0.3123    1.5366 F   0  0  0  0  0  0  0  0  0  0  0  0
    3.0522    1.1454    1.8697 F   0  0  0  0  0  0  0  0  0  0  0  0
    2.6747   -1.1214    1.8688 F   0  0  0  0  0  0  0  0  0  0  0  0
   -3.0793    0.8343    0.6038 H   0  0  0  0  0  0  0  0  0  0  0  0
  1  7  1  0  0  0  0
  2  8  1  0  0  0  0
  2  1  2  0  0  0  0
  3  2  1  0  0  0  0
  4  3  2  0  0  0  0
  4  5  1  0  0  0  0
  5  6  2  0  0  0  0
  6 18  1  0  0  0  0
  6  1  1  0  0  0  0
  9  4  1  0  0  0  0
 10  5  1  0  0  0  0
 11  3  1  0  0  0  0
 12 11  1  0  0  0  0
 12 14  1  0  0  0  0
 13 15  1  0  0  0  0
 13 17  1  0  0  0  0
 13 16  1  0  0  0  0
M  RAD  2  11   2  12   2
M  END
