Coordinates from ORCA-job Ph-N2-BF4-B3LYPG-6-31G_dp-scan-d09-49-n400
 OpenBabel08281821203D

 18 17  0  0  0  0  0  0  0  0999 V2000
   -1.1259    0.1085    0.8690 C   0  0  0  0  0  0  0  0  0  0  0  0
    0.1908    0.1596    0.4257 C   0  0  0  0  0  0  0  0  0  0  0  0
    0.5339    1.2417   -0.3971 C   0  0  0  0  0  0  0  0  0  0  0  0
   -0.3582    2.2574   -0.7836 C   0  0  0  0  0  0  0  0  0  0  0  0
   -1.6603    2.1744   -0.3113 C   0  0  0  0  0  0  0  0  0  0  0  0
   -2.0399    1.1048    0.5108 C   0  0  0  0  0  0  0  0  0  0  0  0
   -1.4352   -0.7104    1.5095 H   0  0  0  0  0  0  0  0  0  0  0  0
    0.9571   -0.5693    0.6689 H   0  0  0  0  0  0  0  0  0  0  0  0
   -0.0295    3.0737   -1.4170 H   0  0  0  0  0  0  0  0  0  0  0  0
   -2.3777    2.9416   -0.5814 H   0  0  0  0  0  0  0  0  0  0  0  0
    1.8238    1.3352   -0.9029 N   0  0  0  0  0  0  0  0  0  0  0  0
    2.7842    1.4915   -1.4398 N   0  0  0  0  0  0  0  0  0  0  0  0
    3.5267    0.0744    1.2267 B   0  0  0  0  0  0  0  0  0  0  0  0
    4.6525    0.5867    0.5925 F   0  0  0  0  0  0  0  0  0  0  0  0
    3.8064   -0.5854    2.3974 F   0  0  0  0  0  0  0  0  0  0  0  0
    2.6027    1.1471    1.4577 F   0  0  0  0  0  0  0  0  0  0  0  0
    2.8495   -0.8075    0.3041 F   0  0  0  0  0  0  0  0  0  0  0  0
   -3.0604    1.0520    0.8769 H   0  0  0  0  0  0  0  0  0  0  0  0
  1  7  1  0  0  0  0
  2  8  1  0  0  0  0
  2  1  2  0  0  0  0
  3  2  1  0  0  0  0
  4  3  2  0  0  0  0
  4  5  1  0  0  0  0
  5  6  2  0  0  0  0
  6  1  1  0  0  0  0
  6 18  1  0  0  0  0
  9  4  1  0  0  0  0
 10  5  1  0  0  0  0
 11  3  1  0  0  0  0
 12 11  1  0  0  0  0
 13 16  1  0  0  0  0
 13 15  1  0  0  0  0
 14 13  1  0  0  0  0
 17 13  1  0  0  0  0
M  RAD  2  11   2  12   3
M  END
