Coordinates from ORCA-job Ph-N2-BF4-B3LYPG-6-31G_dp-scan-d09-49-n400
 OpenBabel08281821203D

 18 17  0  0  0  0  0  0  0  0999 V2000
   -1.1381    0.1123    0.8632 C   0  0  0  0  0  0  0  0  0  0  0  0
    0.1845    0.1696    0.4374 C   0  0  0  0  0  0  0  0  0  0  0  0
    0.5330    1.2530   -0.3812 C   0  0  0  0  0  0  0  0  0  0  0  0
   -0.3592    2.2638   -0.7805 C   0  0  0  0  0  0  0  0  0  0  0  0
   -1.6670    2.1745   -0.3255 C   0  0  0  0  0  0  0  0  0  0  0  0
   -2.0522    1.1033    0.4920 C   0  0  0  0  0  0  0  0  0  0  0  0
   -1.4520   -0.7085    1.4990 H   0  0  0  0  0  0  0  0  0  0  0  0
    0.9506   -0.5569    0.6900 H   0  0  0  0  0  0  0  0  0  0  0  0
   -0.0264    3.0811   -1.4106 H   0  0  0  0  0  0  0  0  0  0  0  0
   -2.3848    2.9377   -0.6060 H   0  0  0  0  0  0  0  0  0  0  0  0
    1.8288    1.3503   -0.8716 N   0  0  0  0  0  0  0  0  0  0  0  0
    2.7982    1.5063   -1.3930 N   0  0  0  0  0  0  0  0  0  0  0  0
    3.5385    0.0592    1.2203 B   0  0  0  0  0  0  0  0  0  0  0  0
    4.6087    0.5834    0.4962 F   0  0  0  0  0  0  0  0  0  0  0  0
    3.9174   -0.5645    2.3813 F   0  0  0  0  0  0  0  0  0  0  0  0
    2.6131    1.1204    1.4882 F   0  0  0  0  0  0  0  0  0  0  0  0
    2.8252   -0.8541    0.3629 F   0  0  0  0  0  0  0  0  0  0  0  0
   -3.0776    1.0450    0.8437 H   0  0  0  0  0  0  0  0  0  0  0  0
  1  7  1  0  0  0  0
  2  8  1  0  0  0  0
  2  1  2  0  0  0  0
  3  2  1  0  0  0  0
  4  3  2  0  0  0  0
  4  5  1  0  0  0  0
  5  6  2  0  0  0  0
  6 18  1  0  0  0  0
  6  1  1  0  0  0  0
  9  4  1  0  0  0  0
 10  5  1  0  0  0  0
 11  3  1  0  0  0  0
 12 11  1  0  0  0  0
 13 16  1  0  0  0  0
 13 15  1  0  0  0  0
 14 13  1  0  0  0  0
 17 13  1  0  0  0  0
M  RAD  2  11   2  12   3
M  END
