Coordinates from ORCA-job Ph-N2-BF4-B3LYPG-6-31G_dp-scan-d09-49-n400
 OpenBabel08281821203D

 18 17  0  0  0  0  0  0  0  0999 V2000
   -1.1150    0.1027    0.8700 C   0  0  0  0  0  0  0  0  0  0  0  0
    0.1968    0.1511    0.4124 C   0  0  0  0  0  0  0  0  0  0  0  0
    0.5343    1.2348   -0.4106 C   0  0  0  0  0  0  0  0  0  0  0  0
   -0.3582    2.2554   -0.7828 C   0  0  0  0  0  0  0  0  0  0  0  0
   -1.6553    2.1750   -0.2964 C   0  0  0  0  0  0  0  0  0  0  0  0
   -2.0295    1.1035    0.5256 C   0  0  0  0  0  0  0  0  0  0  0  0
   -1.4198   -0.7172    1.5113 H   0  0  0  0  0  0  0  0  0  0  0  0
    0.9637   -0.5803    0.6456 H   0  0  0  0  0  0  0  0  0  0  0  0
   -0.0335    3.0733   -1.4161 H   0  0  0  0  0  0  0  0  0  0  0  0
   -2.3728    2.9460   -0.5552 H   0  0  0  0  0  0  0  0  0  0  0  0
    1.8182    1.3255   -0.9313 N   0  0  0  0  0  0  0  0  0  0  0  0
    2.7702    1.4788   -1.4835 N   0  0  0  0  0  0  0  0  0  0  0  0
    3.5171    0.0869    1.2345 B   0  0  0  0  0  0  0  0  0  0  0  0
    4.6895    0.5675    0.6701 F   0  0  0  0  0  0  0  0  0  0  0  0
    3.7075   -0.5859    2.4168 F   0  0  0  0  0  0  0  0  0  0  0  0
    2.6075    1.1816    1.4203 F   0  0  0  0  0  0  0  0  0  0  0  0
    2.8660   -0.7755    0.2722 F   0  0  0  0  0  0  0  0  0  0  0  0
   -3.0461    1.0529    0.9029 H   0  0  0  0  0  0  0  0  0  0  0  0
  1  7  1  0  0  0  0
  2  8  1  0  0  0  0
  2  1  2  0  0  0  0
  3  2  1  0  0  0  0
  4  3  2  0  0  0  0
  4  5  1  0  0  0  0
  5  6  2  0  0  0  0
  6  1  1  0  0  0  0
  6 18  1  0  0  0  0
  9  4  1  0  0  0  0
 10  5  1  0  0  0  0
 11  3  1  0  0  0  0
 12 11  1  0  0  0  0
 13 16  1  0  0  0  0
 13 15  1  0  0  0  0
 14 13  1  0  0  0  0
 17 13  1  0  0  0  0
M  RAD  2  11   2  12   3
M  END
