Coordinates from ORCA-job Ph-N2-BF4-B3LYPG-6-31G_dp-scan-d09-49-n400
 OpenBabel08281821203D

 18 17  0  0  0  0  0  0  0  0999 V2000
   -1.1137    0.1202    0.8255 C   0  0  0  0  0  0  0  0  0  0  0  0
    0.2147    0.2386    0.4285 C   0  0  0  0  0  0  0  0  0  0  0  0
    0.5279    1.3470   -0.3718 C   0  0  0  0  0  0  0  0  0  0  0  0
   -0.4004    2.3229   -0.7792 C   0  0  0  0  0  0  0  0  0  0  0  0
   -1.7106    2.1719   -0.3505 C   0  0  0  0  0  0  0  0  0  0  0  0
   -2.0631    1.0742    0.4475 C   0  0  0  0  0  0  0  0  0  0  0  0
   -1.4041   -0.7214    1.4452 H   0  0  0  0  0  0  0  0  0  0  0  0
    1.0033   -0.4629    0.7002 H   0  0  0  0  0  0  0  0  0  0  0  0
   -0.0917    3.1594   -1.3963 H   0  0  0  0  0  0  0  0  0  0  0  0
   -2.4561    2.9059   -0.6364 H   0  0  0  0  0  0  0  0  0  0  0  0
    1.8245    1.4977   -0.8442 N   0  0  0  0  0  0  0  0  0  0  0  0
    2.7978    1.6780   -1.3518 N   0  0  0  0  0  0  0  0  0  0  0  0
    3.5572   -0.0565    1.2447 B   0  0  0  0  0  0  0  0  0  0  0  0
    4.4962    0.2942    0.2680 F   0  0  0  0  0  0  0  0  0  0  0  0
    4.1347   -0.4077    2.4377 F   0  0  0  0  0  0  0  0  0  0  0  0
    2.6721    1.0638    1.4266 F   0  0  0  0  0  0  0  0  0  0  0  0
    2.7437   -1.1159    0.7342 F   0  0  0  0  0  0  0  0  0  0  0  0
   -3.0916    0.9664    0.7778 H   0  0  0  0  0  0  0  0  0  0  0  0
  1  7  1  0  0  0  0
  2  8  1  0  0  0  0
  2  1  2  0  0  0  0
  3  2  1  0  0  0  0
  4  3  2  0  0  0  0
  4  5  1  0  0  0  0
  5  6  2  0  0  0  0
  6 18  1  0  0  0  0
  6  1  1  0  0  0  0
  9  4  1  0  0  0  0
 10  5  1  0  0  0  0
 11  3  1  0  0  0  0
 12 11  1  0  0  0  0
 13 16  1  0  0  0  0
 13 15  1  0  0  0  0
 14 13  1  0  0  0  0
 17 13  1  0  0  0  0
M  RAD  2  11   2  12   3
M  END
