Coordinates from ORCA-job Ph-N2-BF4-B3LYPG-6-31G_dp-scan-d09-49-n400
 OpenBabel08281821203D

 18 17  0  0  0  0  0  0  0  0999 V2000
   -1.0535    0.0942    0.6626 C   0  0  0  0  0  0  0  0  0  0  0  0
    0.2743    0.3034    0.3030 C   0  0  0  0  0  0  0  0  0  0  0  0
    0.5757    1.4733   -0.4166 C   0  0  0  0  0  0  0  0  0  0  0  0
   -0.4070    2.4110   -0.7695 C   0  0  0  0  0  0  0  0  0  0  0  0
   -1.7252    2.1755   -0.3988 C   0  0  0  0  0  0  0  0  0  0  0  0
   -2.0457    1.0171    0.3166 C   0  0  0  0  0  0  0  0  0  0  0  0
   -1.3122   -0.7980    1.2232 H   0  0  0  0  0  0  0  0  0  0  0  0
    1.0466   -0.4004    0.5812 H   0  0  0  0  0  0  0  0  0  0  0  0
   -0.1211    3.2996   -1.3214 H   0  0  0  0  0  0  0  0  0  0  0  0
   -2.4979    2.8893   -0.6637 H   0  0  0  0  0  0  0  0  0  0  0  0
    1.8764    1.7788   -0.8330 N   0  0  0  0  0  0  0  0  0  0  0  0
    2.9797    1.4345   -0.8647 N   0  0  0  0  0  0  0  0  0  0  0  0
    3.4686   -0.0886    1.4619 B   0  0  0  0  0  0  0  0  0  0  0  0
    3.1737   -0.0653   -0.1518 F   0  0  0  0  0  0  0  0  0  0  0  0
    4.7952   -0.3091    1.5623 F   0  0  0  0  0  0  0  0  0  0  0  0
    3.0305    1.1472    1.8512 F   0  0  0  0  0  0  0  0  0  0  0  0
    2.6574   -1.1205    1.8535 F   0  0  0  0  0  0  0  0  0  0  0  0
   -3.0749    0.8342    0.6101 H   0  0  0  0  0  0  0  0  0  0  0  0
  1  7  1  0  0  0  0
  2  8  1  0  0  0  0
  2  1  2  0  0  0  0
  3  2  1  0  0  0  0
  4  3  2  0  0  0  0
  4  5  1  0  0  0  0
  5  6  2  0  0  0  0
  6 18  1  0  0  0  0
  6  1  1  0  0  0  0
  9  4  1  0  0  0  0
 10  5  1  0  0  0  0
 11  3  1  0  0  0  0
 12 11  2  0  0  0  0
 13 15  1  0  0  0  0
 13 16  1  0  0  0  0
 13 17  1  0  0  0  0
 14 13  1  0  0  0  0
M  RAD  1  12   2
M  END
