Coordinates from ORCA-job Ph-N2-BF4-B3LYPG-6-31G_dp-scan-d09-49-n400
 OpenBabel08281821203D

 18 17  0  0  0  0  0  0  0  0999 V2000
   -1.0099    0.2810    1.0981 C   0  0  0  0  0  0  0  0  0  0  0  0
    0.2854    0.3998    0.6014 C   0  0  0  0  0  0  0  0  0  0  0  0
    0.4809    1.3676   -0.3990 C   0  0  0  0  0  0  0  0  0  0  0  0
   -0.5356    2.1968   -0.9060 C   0  0  0  0  0  0  0  0  0  0  0  0
   -1.8102    2.0461   -0.3804 C   0  0  0  0  0  0  0  0  0  0  0  0
   -2.0432    1.0908    0.6184 C   0  0  0  0  0  0  0  0  0  0  0  0
   -1.2062   -0.4506    1.8747 H   0  0  0  0  0  0  0  0  0  0  0  0
    1.1098   -0.2103    0.9709 H   0  0  0  0  0  0  0  0  0  0  0  0
   -0.3176    2.9250   -1.6794 H   0  0  0  0  0  0  0  0  0  0  0  0
   -2.6198    2.6683   -0.7452 H   0  0  0  0  0  0  0  0  0  0  0  0
    1.7435    1.5150   -0.9491 N   0  0  0  0  0  0  0  0  0  0  0  0
    2.7806    1.5488   -1.3547 N   0  0  0  0  0  0  0  0  0  0  0  0
    3.5995   -0.0643    1.0721 B   0  0  0  0  0  0  0  0  0  0  0  0
    4.8477   -0.1104    1.6245 F   0  0  0  0  0  0  0  0  0  0  0  0
    2.7161   -1.0242    1.6185 F   0  0  0  0  0  0  0  0  0  0  0  0
    3.0013    1.2155    1.2556 F   0  0  0  0  0  0  0  0  0  0  0  0
    3.6616   -0.2993   -0.3403 F   0  0  0  0  0  0  0  0  0  0  0  0
   -3.0434    0.9802    1.0258 H   0  0  0  0  0  0  0  0  0  0  0  0
  1  7  1  0  0  0  0
  2  8  1  0  0  0  0
  2  1  2  0  0  0  0
  3  2  1  0  0  0  0
  4  3  2  0  0  0  0
  4  5  1  0  0  0  0
  5  6  2  0  0  0  0
  6 18  1  0  0  0  0
  6  1  1  0  0  0  0
  9  4  1  0  0  0  0
 10  5  1  0  0  0  0
 11  3  1  0  0  0  0
 12 11  1  0  0  0  0
 13 16  1  0  0  0  0
 13 15  1  0  0  0  0
 13 14  1  0  0  0  0
 17 13  1  0  0  0  0
M  RAD  2  11   2  12   3
M  END
