Coordinates from ORCA-job Ph-N2-BF4-B3LYPG-6-31G_dp-scan-d09-49-n400
 OpenBabel08281821203D

 18 17  0  0  0  0  0  0  0  0999 V2000
   -1.1064    0.0988    0.8721 C   0  0  0  0  0  0  0  0  0  0  0  0
    0.2021    0.1476    0.4054 C   0  0  0  0  0  0  0  0  0  0  0  0
    0.5348    1.2323   -0.4182 C   0  0  0  0  0  0  0  0  0  0  0  0
   -0.3596    2.2542   -0.7820 C   0  0  0  0  0  0  0  0  0  0  0  0
   -1.6535    2.1734   -0.2868 C   0  0  0  0  0  0  0  0  0  0  0  0
   -2.0228    1.1006    0.5356 C   0  0  0  0  0  0  0  0  0  0  0  0
   -1.4069   -0.7220    1.5142 H   0  0  0  0  0  0  0  0  0  0  0  0
    0.9702   -0.5847    0.6321 H   0  0  0  0  0  0  0  0  0  0  0  0
   -0.0388    3.0733   -1.4157 H   0  0  0  0  0  0  0  0  0  0  0  0
   -2.3722    2.9453   -0.5393 H   0  0  0  0  0  0  0  0  0  0  0  0
    1.8149    1.3225   -0.9488 N   0  0  0  0  0  0  0  0  0  0  0  0
    2.7619    1.4732   -1.5097 N   0  0  0  0  0  0  0  0  0  0  0  0
    3.5104    0.0946    1.2381 B   0  0  0  0  0  0  0  0  0  0  0  0
    4.7189    0.5382    0.7269 F   0  0  0  0  0  0  0  0  0  0  0  0
    3.6252   -0.5857    2.4267 F   0  0  0  0  0  0  0  0  0  0  0  0
    2.6248    1.2150    1.3874 F   0  0  0  0  0  0  0  0  0  0  0  0
    2.8743   -0.7501    0.2483 F   0  0  0  0  0  0  0  0  0  0  0  0
   -3.0368    1.0497    0.9195 H   0  0  0  0  0  0  0  0  0  0  0  0
  1  7  1  0  0  0  0
  2  8  1  0  0  0  0
  2  1  2  0  0  0  0
  3  2  1  0  0  0  0
  4  3  2  0  0  0  0
  4  5  1  0  0  0  0
  5  6  2  0  0  0  0
  6  1  1  0  0  0  0
  6 18  1  0  0  0  0
  9  4  1  0  0  0  0
 10  5  1  0  0  0  0
 11  3  1  0  0  0  0
 12 11  1  0  0  0  0
 13 16  1  0  0  0  0
 13 15  1  0  0  0  0
 14 13  1  0  0  0  0
 17 13  1  0  0  0  0
M  RAD  2  11   2  12   3
M  END
