Coordinates from ORCA-job Ph-N2-BF4-B3LYPG-6-31G_dp-scan-d09-49-n400
 OpenBabel08281821203D

 18 17  0  0  0  0  0  0  0  0999 V2000
   -1.1371    0.1123    0.8642 C   0  0  0  0  0  0  0  0  0  0  0  0
    0.1850    0.1690    0.4370 C   0  0  0  0  0  0  0  0  0  0  0  0
    0.5331    1.2520   -0.3823 C   0  0  0  0  0  0  0  0  0  0  0  0
   -0.3592    2.2630   -0.7811 C   0  0  0  0  0  0  0  0  0  0  0  0
   -1.6666    2.1743   -0.3248 C   0  0  0  0  0  0  0  0  0  0  0  0
   -2.0513    1.1035    0.4936 C   0  0  0  0  0  0  0  0  0  0  0  0
   -1.4506   -0.7080    1.5008 H   0  0  0  0  0  0  0  0  0  0  0  0
    0.9512   -0.5575    0.6890 H   0  0  0  0  0  0  0  0  0  0  0  0
   -0.0268    3.0799   -1.4118 H   0  0  0  0  0  0  0  0  0  0  0  0
   -2.3844    2.9375   -0.6049 H   0  0  0  0  0  0  0  0  0  0  0  0
    1.8285    1.3491   -0.8738 N   0  0  0  0  0  0  0  0  0  0  0  0
    2.7975    1.5051   -1.3959 N   0  0  0  0  0  0  0  0  0  0  0  0
    3.5376    0.0604    1.2205 B   0  0  0  0  0  0  0  0  0  0  0  0
    4.6127    0.5848    0.5047 F   0  0  0  0  0  0  0  0  0  0  0  0
    3.9079   -0.5683    2.3817 F   0  0  0  0  0  0  0  0  0  0  0  0
    2.6122    1.1222    1.4867 F   0  0  0  0  0  0  0  0  0  0  0  0
    2.8271   -0.8490    0.3560 F   0  0  0  0  0  0  0  0  0  0  0  0
   -3.0763    1.0458    0.8465 H   0  0  0  0  0  0  0  0  0  0  0  0
  1  7  1  0  0  0  0
  2  8  1  0  0  0  0
  2  1  2  0  0  0  0
  3  2  1  0  0  0  0
  4  3  2  0  0  0  0
  4  5  1  0  0  0  0
  5  6  2  0  0  0  0
  6 18  1  0  0  0  0
  6  1  1  0  0  0  0
  9  4  1  0  0  0  0
 10  5  1  0  0  0  0
 11  3  1  0  0  0  0
 12 11  1  0  0  0  0
 13 16  1  0  0  0  0
 13 15  1  0  0  0  0
 14 13  1  0  0  0  0
 17 13  1  0  0  0  0
M  RAD  2  11   2  12   3
M  END
