Coordinates from ORCA-job Ph-N2-BF4-B3LYPG-6-31G_dp-scan-d09-49-n400
 OpenBabel08281821203D

 18 17  0  0  0  0  0  0  0  0999 V2000
   -1.0355    0.2878    1.1229 C   0  0  0  0  0  0  0  0  0  0  0  0
    0.2557    0.3634    0.6079 C   0  0  0  0  0  0  0  0  0  0  0  0
    0.4688    1.3168   -0.4013 C   0  0  0  0  0  0  0  0  0  0  0  0
   -0.5278    2.1738   -0.9023 C   0  0  0  0  0  0  0  0  0  0  0  0
   -1.7986    2.0688   -0.3567 C   0  0  0  0  0  0  0  0  0  0  0  0
   -2.0484    1.1284    0.6523 C   0  0  0  0  0  0  0  0  0  0  0  0
   -1.2453   -0.4325    1.9064 H   0  0  0  0  0  0  0  0  0  0  0  0
    1.0728   -0.2670    0.9592 H   0  0  0  0  0  0  0  0  0  0  0  0
   -0.2980    2.8887   -1.6847 H   0  0  0  0  0  0  0  0  0  0  0  0
   -2.5926    2.7148   -0.7146 H   0  0  0  0  0  0  0  0  0  0  0  0
    1.7249    1.4190   -0.9774 N   0  0  0  0  0  0  0  0  0  0  0  0
    2.7322    1.4634   -1.4522 N   0  0  0  0  0  0  0  0  0  0  0  0
    3.6254   -0.0289    1.0600 B   0  0  0  0  0  0  0  0  0  0  0  0
    4.7505   -0.0632    1.8346 F   0  0  0  0  0  0  0  0  0  0  0  0
    2.7362   -1.0925    1.3516 F   0  0  0  0  0  0  0  0  0  0  0  0
    2.9064    1.1873    1.2516 F   0  0  0  0  0  0  0  0  0  0  0  0
    3.9596   -0.1055   -0.3259 F   0  0  0  0  0  0  0  0  0  0  0  0
   -3.0458    1.0535    1.0744 H   0  0  0  0  0  0  0  0  0  0  0  0
  1  7  1  0  0  0  0
  2  8  1  0  0  0  0
  2  1  2  0  0  0  0
  3  2  1  0  0  0  0
  4  3  2  0  0  0  0
  4  5  1  0  0  0  0
  5  6  2  0  0  0  0
  6 18  1  0  0  0  0
  6  1  1  0  0  0  0
  9  4  1  0  0  0  0
 10  5  1  0  0  0  0
 11  3  1  0  0  0  0
 12 11  1  0  0  0  0
 13 16  1  0  0  0  0
 13 15  1  0  0  0  0
 13 14  1  0  0  0  0
 17 13  1  0  0  0  0
M  RAD  2  11   2  12   3
M  END
