Coordinates from ORCA-job Ph-N2-BF4-B3LYPG-6-31G_dp-scan-d09-49-n400
 OpenBabel08281821203D

 18 17  0  0  0  0  0  0  0  0999 V2000
   -1.1322    0.1315    0.8177 C   0  0  0  0  0  0  0  0  0  0  0  0
    0.2042    0.2561    0.4499 C   0  0  0  0  0  0  0  0  0  0  0  0
    0.5321    1.3606   -0.3517 C   0  0  0  0  0  0  0  0  0  0  0  0
   -0.3959    2.3228   -0.7886 C   0  0  0  0  0  0  0  0  0  0  0  0
   -1.7155    2.1674   -0.3899 C   0  0  0  0  0  0  0  0  0  0  0  0
   -2.0795    1.0748    0.4093 C   0  0  0  0  0  0  0  0  0  0  0  0
   -1.4308   -0.7078    1.4367 H   0  0  0  0  0  0  0  0  0  0  0  0
    0.9832   -0.4424    0.7497 H   0  0  0  0  0  0  0  0  0  0  0  0
   -0.0787    3.1553   -1.4067 H   0  0  0  0  0  0  0  0  0  0  0  0
   -2.4595    2.8928   -0.7006 H   0  0  0  0  0  0  0  0  0  0  0  0
    1.8423    1.5175   -0.7789 N   0  0  0  0  0  0  0  0  0  0  0  0
    2.8818    1.6422   -1.1642 N   0  0  0  0  0  0  0  0  0  0  0  0
    3.5449   -0.0647    1.2327 B   0  0  0  0  0  0  0  0  0  0  0  0
    4.2578    0.3517    0.0685 F   0  0  0  0  0  0  0  0  0  0  0  0
    4.3974   -0.3761    2.2560 F   0  0  0  0  0  0  0  0  0  0  0  0
    2.6717    1.0031    1.5834 F   0  0  0  0  0  0  0  0  0  0  0  0
    2.7318   -1.1704    0.8663 F   0  0  0  0  0  0  0  0  0  0  0  0
   -3.1147    0.9617    0.7162 H   0  0  0  0  0  0  0  0  0  0  0  0
  1  7  1  0  0  0  0
  2  8  1  0  0  0  0
  2  1  1  0  0  0  0
  3  2  2  0  0  0  0
  4  5  2  0  0  0  0
  4  3  1  0  0  0  0
  5  6  1  0  0  0  0
  6 18  1  0  0  0  0
  6  1  2  0  0  0  0
  9  4  1  0  0  0  0
 10  5  1  0  0  0  0
 11  3  1  0  0  0  0
 12 11  1  0  0  0  0
 13 16  1  0  0  0  0
 13 15  1  0  0  0  0
 14 13  1  0  0  0  0
 17 13  1  0  0  0  0
M  RAD  2  11   2  12   3
M  END
