Coordinates from ORCA-job Ph-N2-BF4-B3LYPG-6-31G_dp-scan-d09-49-n400
 OpenBabel08281821203D

 18 17  0  0  0  0  0  0  0  0999 V2000
   -1.1059    0.1193    0.7629 C   0  0  0  0  0  0  0  0  0  0  0  0
    0.2285    0.2763    0.4000 C   0  0  0  0  0  0  0  0  0  0  0  0
    0.5436    1.4064   -0.3729 C   0  0  0  0  0  0  0  0  0  0  0  0
   -0.4037    2.3597   -0.7829 C   0  0  0  0  0  0  0  0  0  0  0  0
   -1.7227    2.1735   -0.3936 C   0  0  0  0  0  0  0  0  0  0  0  0
   -2.0697    1.0554    0.3759 C   0  0  0  0  0  0  0  0  0  0  0  0
   -1.3903   -0.7401    1.3606 H   0  0  0  0  0  0  0  0  0  0  0  0
    1.0040   -0.4258    0.6984 H   0  0  0  0  0  0  0  0  0  0  0  0
   -0.0983    3.2129   -1.3785 H   0  0  0  0  0  0  0  0  0  0  0  0
   -2.4783    2.8935   -0.6882 H   0  0  0  0  0  0  0  0  0  0  0  0
    1.8524    1.6026   -0.7862 N   0  0  0  0  0  0  0  0  0  0  0  0
    2.9483    1.6120   -1.0345 N   0  0  0  0  0  0  0  0  0  0  0  0
    3.5028   -0.0904    1.2865 B   0  0  0  0  0  0  0  0  0  0  0  0
    3.9136    0.1826   -0.0979 F   0  0  0  0  0  0  0  0  0  0  0  0
    4.6111   -0.2593    2.0618 F   0  0  0  0  0  0  0  0  0  0  0  0
    2.7235    1.0153    1.6745 F   0  0  0  0  0  0  0  0  0  0  0  0
    2.6848   -1.2333    1.2427 F   0  0  0  0  0  0  0  0  0  0  0  0
   -3.1033    0.9155    0.6771 H   0  0  0  0  0  0  0  0  0  0  0  0
  1  7  1  0  0  0  0
  2  8  1  0  0  0  0
  2  1  1  0  0  0  0
  3  2  2  0  0  0  0
  4  5  2  0  0  0  0
  4  3  1  0  0  0  0
  5  6  1  0  0  0  0
  6 18  1  0  0  0  0
  6  1  2  0  0  0  0
  9  4  1  0  0  0  0
 10  5  1  0  0  0  0
 11  3  1  0  0  0  0
 12 11  1  0  0  0  0
 13 16  1  0  0  0  0
 13 15  1  0  0  0  0
 14 13  1  0  0  0  0
 17 13  1  0  0  0  0
M  RAD  2  11   2  12   3
M  END
