Coordinates from ORCA-job Ph-N2-BF4-B3LYPG-6-31G_dp-scan-d09-49-n400
 OpenBabel08281821203D

 18 17  0  0  0  0  0  0  0  0999 V2000
   -0.9772    0.2653    1.1240 C   0  0  0  0  0  0  0  0  0  0  0  0
    0.2736    0.2854    0.5130 C   0  0  0  0  0  0  0  0  0  0  0  0
    0.4525    1.2421   -0.4980 C   0  0  0  0  0  0  0  0  0  0  0  0
   -0.5309    2.1647   -0.9073 C   0  0  0  0  0  0  0  0  0  0  0  0
   -1.7562    2.1153   -0.2621 C   0  0  0  0  0  0  0  0  0  0  0  0
   -1.9765    1.1670    0.7481 C   0  0  0  0  0  0  0  0  0  0  0  0
   -1.1627   -0.4570    1.9117 H   0  0  0  0  0  0  0  0  0  0  0  0
    1.0929   -0.3810    0.7913 H   0  0  0  0  0  0  0  0  0  0  0  0
   -0.3252    2.8832   -1.6931 H   0  0  0  0  0  0  0  0  0  0  0  0
   -2.5391    2.8111   -0.5435 H   0  0  0  0  0  0  0  0  0  0  0  0
    1.6490    1.2836   -1.1977 N   0  0  0  0  0  0  0  0  0  0  0  0
    2.5063    1.3545   -1.9047 N   0  0  0  0  0  0  0  0  0  0  0  0
    3.6173    0.0354    1.1560 B   0  0  0  0  0  0  0  0  0  0  0  0
    4.3362   -0.0282    2.3344 F   0  0  0  0  0  0  0  0  0  0  0  0
    2.7447   -1.0950    1.0493 F   0  0  0  0  0  0  0  0  0  0  0  0
    2.7652    1.1975    1.1309 F   0  0  0  0  0  0  0  0  0  0  0  0
    4.4112    0.0955    0.0074 F   0  0  0  0  0  0  0  0  0  0  0  0
   -2.9406    1.1366    1.2463 H   0  0  0  0  0  0  0  0  0  0  0  0
  1  7  1  0  0  0  0
  2  8  1  0  0  0  0
  2  1  2  0  0  0  0
  3  2  1  0  0  0  0
  4  3  2  0  0  0  0
  4  5  1  0  0  0  0
  5  6  2  0  0  0  0
  6  1  1  0  0  0  0
  6 18  1  0  0  0  0
  9  4  1  0  0  0  0
 10  5  1  0  0  0  0
 11  3  1  0  0  0  0
 12 11  1  0  0  0  0
 13 14  1  0  0  0  0
 15 13  1  0  0  0  0
 16 13  1  0  0  0  0
 17 13  1  0  0  0  0
M  RAD  2  11   2  12   3
M  END
