Coordinates from ORCA-job Ph-N2-BF4-B3LYPG-6-31G_dp-scan-d09-49-n400
 OpenBabel08281821203D

 18 17  0  0  0  0  0  0  0  0999 V2000
   -1.1332    0.1320    0.8176 C   0  0  0  0  0  0  0  0  0  0  0  0
    0.2035    0.2566    0.4509 C   0  0  0  0  0  0  0  0  0  0  0  0
    0.5323    1.3607   -0.3510 C   0  0  0  0  0  0  0  0  0  0  0  0
   -0.3956    2.3224   -0.7891 C   0  0  0  0  0  0  0  0  0  0  0  0
   -1.7156    2.1673   -0.3915 C   0  0  0  0  0  0  0  0  0  0  0  0
   -2.0802    1.0751    0.4080 C   0  0  0  0  0  0  0  0  0  0  0  0
   -1.4323   -0.7070    1.4367 H   0  0  0  0  0  0  0  0  0  0  0  0
    0.9819   -0.4420    0.7516 H   0  0  0  0  0  0  0  0  0  0  0  0
   -0.0778    3.1546   -1.4074 H   0  0  0  0  0  0  0  0  0  0  0  0
   -2.4593    2.8924   -0.7032 H   0  0  0  0  0  0  0  0  0  0  0  0
    1.8429    1.5177   -0.7765 N   0  0  0  0  0  0  0  0  0  0  0  0
    2.8851    1.6394   -1.1564 N   0  0  0  0  0  0  0  0  0  0  0  0
    3.5444   -0.0648    1.2325 B   0  0  0  0  0  0  0  0  0  0  0  0
    4.2478    0.3564    0.0622 F   0  0  0  0  0  0  0  0  0  0  0  0
    4.4072   -0.3750    2.2472 F   0  0  0  0  0  0  0  0  0  0  0  0
    2.6720    1.0000    1.5908 F   0  0  0  0  0  0  0  0  0  0  0  0
    2.7329   -1.1721    0.8695 F   0  0  0  0  0  0  0  0  0  0  0  0
   -3.1157    0.9621    0.7141 H   0  0  0  0  0  0  0  0  0  0  0  0
  1  7  1  0  0  0  0
  2  8  1  0  0  0  0
  2  1  1  0  0  0  0
  3  2  2  0  0  0  0
  4  5  2  0  0  0  0
  4  3  1  0  0  0  0
  5  6  1  0  0  0  0
  6 18  1  0  0  0  0
  6  1  2  0  0  0  0
  9  4  1  0  0  0  0
 10  5  1  0  0  0  0
 11  3  1  0  0  0  0
 12 11  1  0  0  0  0
 13 16  1  0  0  0  0
 13 15  1  0  0  0  0
 14 13  1  0  0  0  0
 17 13  1  0  0  0  0
M  RAD  2  11   2  12   3
M  END
