Coordinates from ORCA-job Ph-N2-BF4-B3LYPG-6-31G_dp-scan-d09-49-n400
 OpenBabel08281821203D

 18 17  0  0  0  0  0  0  0  0999 V2000
   -1.1693    0.1689    0.6569 C   0  0  0  0  0  0  0  0  0  0  0  0
    0.1655    0.4941    0.4294 C   0  0  0  0  0  0  0  0  0  0  0  0
    0.4616    1.6332   -0.3456 C   0  0  0  0  0  0  0  0  0  0  0  0
   -0.5750    2.4287   -0.8614 C   0  0  0  0  0  0  0  0  0  0  0  0
   -1.9028    2.0766   -0.6422 C   0  0  0  0  0  0  0  0  0  0  0  0
   -2.2005    0.9443    0.1192 C   0  0  0  0  0  0  0  0  0  0  0  0
   -1.4046   -0.7043    1.2575 H   0  0  0  0  0  0  0  0  0  0  0  0
    0.9545   -0.1040    0.8576 H   0  0  0  0  0  0  0  0  0  0  0  0
   -0.3123    3.3127   -1.4324 H   0  0  0  0  0  0  0  0  0  0  0  0
   -2.7003    2.6872   -1.0527 H   0  0  0  0  0  0  0  0  0  0  0  0
    1.7509    2.1347   -0.6438 N   0  0  0  0  0  0  0  0  0  0  0  0
    2.8482    1.6406   -0.5805 N   0  0  0  0  0  0  0  0  0  0  0  0
    4.0114   -0.3781    1.7273 B   0  0  0  0  0  0  0  0  0  0  0  0
    2.8423    0.2689   -0.1378 F   0  0  0  0  0  0  0  0  0  0  0  0
    4.8614   -1.1343    1.0582 F   0  0  0  0  0  0  0  0  0  0  0  0
    4.3389    0.8563    2.0657 F   0  0  0  0  0  0  0  0  0  0  0  0
    2.9058   -0.9195    2.2283 F   0  0  0  0  0  0  0  0  0  0  0  0
   -3.2352    0.6699    0.3022 H   0  0  0  0  0  0  0  0  0  0  0  0
  1  7  1  0  0  0  0
  2  1  1  0  0  0  0
  2  8  1  0  0  0  0
  3  2  2  0  0  0  0
  4  5  2  0  0  0  0
  4  3  1  0  0  0  0
  5  6  1  0  0  0  0
  6 18  1  0  0  0  0
  6  1  2  0  0  0  0
  9  4  1  0  0  0  0
 10  5  1  0  0  0  0
 11 12  1  0  0  0  0
 11  3  1  0  0  0  0
 12 14  1  0  0  0  0
 13 16  1  0  0  0  0
 13 17  1  0  0  0  0
 15 13  1  0  0  0  0
M  RAD  2  11   2  12   2
M  END
