Coordinates from ORCA-job Ph-N2-BF4-B3LYPG-6-31G_dp-scan-d09-49-n400
 OpenBabel08281821203D

 18 17  0  0  0  0  0  0  0  0999 V2000
   -0.6171   -0.2131    0.3788 C   0  0  0  0  0  0  0  0  0  0  0  0
    0.5224    0.0201   -0.3904 C   0  0  0  0  0  0  0  0  0  0  0  0
    0.7973    1.3292   -0.8299 C   0  0  0  0  0  0  0  0  0  0  0  0
   -0.0863    2.3726   -0.5146 C   0  0  0  0  0  0  0  0  0  0  0  0
   -1.2039    2.1308    0.2798 C   0  0  0  0  0  0  0  0  0  0  0  0
   -1.4724    0.8357    0.7269 C   0  0  0  0  0  0  0  0  0  0  0  0
   -0.8328   -1.2233    0.7129 H   0  0  0  0  0  0  0  0  0  0  0  0
    1.1782   -0.7965   -0.6550 H   0  0  0  0  0  0  0  0  0  0  0  0
    0.1300    3.3645   -0.8962 H   0  0  0  0  0  0  0  0  0  0  0  0
   -1.8706    2.9479    0.5372 H   0  0  0  0  0  0  0  0  0  0  0  0
    1.8703    1.7227   -1.6758 N   0  0  0  0  0  0  0  0  0  0  0  0
    2.9766    1.2106   -1.7604 N   0  0  0  0  0  0  0  0  0  0  0  0
    2.3491    0.3955    2.1612 B   0  0  0  0  0  0  0  0  0  0  0  0
    3.1800    0.1523   -0.9290 F   0  0  0  0  0  0  0  0  0  0  0  0
    2.7739   -0.8021    1.8086 F   0  0  0  0  0  0  0  0  0  0  0  0
    2.9286    1.4774    1.6797 F   0  0  0  0  0  0  0  0  0  0  0  0
    1.3662    0.5111    3.0353 F   0  0  0  0  0  0  0  0  0  0  0  0
   -2.3492    0.6403    1.3368 H   0  0  0  0  0  0  0  0  0  0  0  0
  1  7  1  0  0  0  0
  1  6  1  0  0  0  0
  2  1  2  0  0  0  0
  3  4  2  0  0  0  0
  3  2  1  0  0  0  0
  4  5  1  0  0  0  0
  5 10  1  0  0  0  0
  5  6  2  0  0  0  0
  6 18  1  0  0  0  0
  8  2  1  0  0  0  0
  9  4  1  0  0  0  0
 11  3  1  0  0  0  0
 12 11  1  0  0  0  0
 12 14  1  0  0  0  0
 13 17  1  0  0  0  0
 15 13  1  0  0  0  0
 16 13  1  0  0  0  0
M  RAD  2  11   2  12   2
M  END
