Coordinates from ORCA-job Ph-N2-BF4-B3LYPG-6-31G_dp-scan-d09-49-n400
 OpenBabel08281821203D

 18 17  0  0  0  0  0  0  0  0999 V2000
   -0.9876    0.2626    1.1229 C   0  0  0  0  0  0  0  0  0  0  0  0
    0.2668    0.2796    0.5196 C   0  0  0  0  0  0  0  0  0  0  0  0
    0.4550    1.2364   -0.4899 C   0  0  0  0  0  0  0  0  0  0  0  0
   -0.5230    2.1622   -0.9037 C   0  0  0  0  0  0  0  0  0  0  0  0
   -1.7524    2.1165   -0.2655 C   0  0  0  0  0  0  0  0  0  0  0  0
   -1.9818    1.1679    0.7420 C   0  0  0  0  0  0  0  0  0  0  0  0
   -1.1802   -0.4599    1.9087 H   0  0  0  0  0  0  0  0  0  0  0  0
    1.0820   -0.3892    0.8029 H   0  0  0  0  0  0  0  0  0  0  0  0
   -0.3104    2.8810   -1.6873 H   0  0  0  0  0  0  0  0  0  0  0  0
   -2.5312    2.8154   -0.5503 H   0  0  0  0  0  0  0  0  0  0  0  0
    1.6568    1.2742   -1.1807 N   0  0  0  0  0  0  0  0  0  0  0  0
    2.5268    1.3362   -1.8727 N   0  0  0  0  0  0  0  0  0  0  0  0
    3.6153    0.0449    1.1460 B   0  0  0  0  0  0  0  0  0  0  0  0
    4.3743   -0.0221    2.2982 F   0  0  0  0  0  0  0  0  0  0  0  0
    2.7505   -1.0912    1.0558 F   0  0  0  0  0  0  0  0  0  0  0  0
    2.7567    1.2003    1.1558 F   0  0  0  0  0  0  0  0  0  0  0  0
    4.3719    0.1214   -0.0303 F   0  0  0  0  0  0  0  0  0  0  0  0
   -2.9489    1.1400    1.2345 H   0  0  0  0  0  0  0  0  0  0  0  0
  1  7  1  0  0  0  0
  2  8  1  0  0  0  0
  2  1  2  0  0  0  0
  3  2  1  0  0  0  0
  4  3  2  0  0  0  0
  4  5  1  0  0  0  0
  5  6  2  0  0  0  0
  6  1  1  0  0  0  0
  6 18  1  0  0  0  0
  9  4  1  0  0  0  0
 10  5  1  0  0  0  0
 11  3  1  0  0  0  0
 12 11  1  0  0  0  0
 13 16  1  0  0  0  0
 13 14  1  0  0  0  0
 15 13  1  0  0  0  0
 17 13  1  0  0  0  0
M  RAD  2  11   2  12   3
M  END
