Coordinates from ORCA-job Ph-N2-BF4-B3LYPG-6-31G_dp-scan-d09-49-n400
 OpenBabel08281821203D

 18 17  0  0  0  0  0  0  0  0999 V2000
   -0.6178   -0.2144    0.3810 C   0  0  0  0  0  0  0  0  0  0  0  0
    0.5222    0.0172   -0.3887 C   0  0  0  0  0  0  0  0  0  0  0  0
    0.8016    1.3252   -0.8300 C   0  0  0  0  0  0  0  0  0  0  0  0
   -0.0816    2.3688   -0.5129 C   0  0  0  0  0  0  0  0  0  0  0  0
   -1.2001    2.1295    0.2808 C   0  0  0  0  0  0  0  0  0  0  0  0
   -1.4718    0.8353    0.7286 C   0  0  0  0  0  0  0  0  0  0  0  0
   -0.8347   -1.2244    0.7153 H   0  0  0  0  0  0  0  0  0  0  0  0
    1.1725   -0.8046   -0.6522 H   0  0  0  0  0  0  0  0  0  0  0  0
    0.1362    3.3603   -0.8950 H   0  0  0  0  0  0  0  0  0  0  0  0
   -1.8655    2.9481    0.5372 H   0  0  0  0  0  0  0  0  0  0  0  0
    1.8727    1.7237   -1.6796 N   0  0  0  0  0  0  0  0  0  0  0  0
    2.9824    1.1985   -1.7461 N   0  0  0  0  0  0  0  0  0  0  0  0
    2.3443    0.3975    2.1577 B   0  0  0  0  0  0  0  0  0  0  0  0
    3.1712    0.1827   -0.9391 F   0  0  0  0  0  0  0  0  0  0  0  0
    2.7711   -0.7985    1.8001 F   0  0  0  0  0  0  0  0  0  0  0  0
    2.9237    1.4804    1.6774 F   0  0  0  0  0  0  0  0  0  0  0  0
    1.3635    0.5093    3.0337 F   0  0  0  0  0  0  0  0  0  0  0  0
   -2.3493    0.6415    1.3379 H   0  0  0  0  0  0  0  0  0  0  0  0
  1  7  1  0  0  0  0
  1  6  1  0  0  0  0
  2  1  2  0  0  0  0
  3  4  2  0  0  0  0
  3  2  1  0  0  0  0
  4  5  1  0  0  0  0
  5 10  1  0  0  0  0
  5  6  2  0  0  0  0
  6 18  1  0  0  0  0
  8  2  1  0  0  0  0
  9  4  1  0  0  0  0
 11  3  1  0  0  0  0
 12 11  2  0  0  0  0
 12 14  1  0  0  0  0
 13 17  1  0  0  0  0
 15 13  1  0  0  0  0
 16 13  1  0  0  0  0
M  END
