Coordinates from ORCA-job Ph-N2-BF4-B3LYPG-6-31G_dp-scan-d09-49-n400
 OpenBabel08281821203D

 18 17  0  0  0  0  0  0  0  0999 V2000
   -1.1043    0.0982    0.8728 C   0  0  0  0  0  0  0  0  0  0  0  0
    0.2035    0.1472    0.4043 C   0  0  0  0  0  0  0  0  0  0  0  0
    0.5349    1.2321   -0.4196 C   0  0  0  0  0  0  0  0  0  0  0  0
   -0.3601    2.2539   -0.7819 C   0  0  0  0  0  0  0  0  0  0  0  0
   -1.6533    2.1728   -0.2851 C   0  0  0  0  0  0  0  0  0  0  0  0
   -2.0214    1.0998    0.5377 C   0  0  0  0  0  0  0  0  0  0  0  0
   -1.4037   -0.7229    1.5152 H   0  0  0  0  0  0  0  0  0  0  0  0
    0.9719   -0.5851    0.6298 H   0  0  0  0  0  0  0  0  0  0  0  0
   -0.0404    3.0732   -1.4159 H   0  0  0  0  0  0  0  0  0  0  0  0
   -2.3725    2.9447   -0.5364 H   0  0  0  0  0  0  0  0  0  0  0  0
    1.8142    1.3224   -0.9522 N   0  0  0  0  0  0  0  0  0  0  0  0
    2.7602    1.4728   -1.5148 N   0  0  0  0  0  0  0  0  0  0  0  0
    3.5090    0.0960    1.2387 B   0  0  0  0  0  0  0  0  0  0  0  0
    4.7253    0.5302    0.7395 F   0  0  0  0  0  0  0  0  0  0  0  0
    3.6065   -0.5859    2.4281 F   0  0  0  0  0  0  0  0  0  0  0  0
    2.6298    1.2225    1.3799 F   0  0  0  0  0  0  0  0  0  0  0  0
    2.8759   -0.7444    0.2428 F   0  0  0  0  0  0  0  0  0  0  0  0
   -3.0349    1.0487    0.9229 H   0  0  0  0  0  0  0  0  0  0  0  0
  1  7  1  0  0  0  0
  2  8  1  0  0  0  0
  2  1  2  0  0  0  0
  3  2  1  0  0  0  0
  4  3  2  0  0  0  0
  4  5  1  0  0  0  0
  5  6  2  0  0  0  0
  6  1  1  0  0  0  0
  6 18  1  0  0  0  0
  9  4  1  0  0  0  0
 10  5  1  0  0  0  0
 11  3  1  0  0  0  0
 12 11  1  0  0  0  0
 13 16  1  0  0  0  0
 13 15  1  0  0  0  0
 14 13  1  0  0  0  0
 17 13  1  0  0  0  0
M  RAD  2  11   2  12   3
M  END
