Coordinates from ORCA-job Ph-N2-BF4-B3LYPG-6-31G_dp-scan-d09-49-n400
 OpenBabel08281821203D

 18 17  0  0  0  0  0  0  0  0999 V2000
   -1.0034    0.2832    1.0957 C   0  0  0  0  0  0  0  0  0  0  0  0
    0.2924    0.4100    0.6019 C   0  0  0  0  0  0  0  0  0  0  0  0
    0.4832    1.3781   -0.3993 C   0  0  0  0  0  0  0  0  0  0  0  0
   -0.5386    2.1973   -0.9115 C   0  0  0  0  0  0  0  0  0  0  0  0
   -1.8136    2.0378   -0.3896 C   0  0  0  0  0  0  0  0  0  0  0  0
   -2.0418    1.0834    0.6112 C   0  0  0  0  0  0  0  0  0  0  0  0
   -1.1958   -0.4479    1.8737 H   0  0  0  0  0  0  0  0  0  0  0  0
    1.1178   -0.1947    0.9774 H   0  0  0  0  0  0  0  0  0  0  0  0
   -0.3240    2.9254   -1.6860 H   0  0  0  0  0  0  0  0  0  0  0  0
   -2.6271    2.6526   -0.7585 H   0  0  0  0  0  0  0  0  0  0  0  0
    1.7479    1.5380   -0.9406 N   0  0  0  0  0  0  0  0  0  0  0  0
    2.7970    1.5800   -1.3129 N   0  0  0  0  0  0  0  0  0  0  0  0
    3.5930   -0.0747    1.0720 B   0  0  0  0  0  0  0  0  0  0  0  0
    4.8643   -0.1350    1.5663 F   0  0  0  0  0  0  0  0  0  0  0  0
    2.7177   -1.0112    1.6670 F   0  0  0  0  0  0  0  0  0  0  0  0
    3.0264    1.2181    1.2622 F   0  0  0  0  0  0  0  0  0  0  0  0
    3.5872   -0.3303   -0.3394 F   0  0  0  0  0  0  0  0  0  0  0  0
   -3.0421    0.9660    1.0164 H   0  0  0  0  0  0  0  0  0  0  0  0
  1  7  1  0  0  0  0
  2  8  1  0  0  0  0
  2  1  2  0  0  0  0
  3  2  1  0  0  0  0
  4  3  2  0  0  0  0
  4  5  1  0  0  0  0
  5  6  2  0  0  0  0
  6 18  1  0  0  0  0
  6  1  1  0  0  0  0
  9  4  1  0  0  0  0
 10  5  1  0  0  0  0
 11  3  1  0  0  0  0
 12 11  1  0  0  0  0
 13 16  1  0  0  0  0
 13 14  1  0  0  0  0
 13 15  1  0  0  0  0
 17 13  1  0  0  0  0
M  RAD  2  11   2  12   3
M  END
