Coordinates from ORCA-job Ph-N2-BF4-B3LYPG-6-31G_dp-scan-d09-49-n400
 OpenBabel08281821203D

 18 17  0  0  0  0  0  0  0  0999 V2000
   -1.1001    0.0970    0.8743 C   0  0  0  0  0  0  0  0  0  0  0  0
    0.2064    0.1469    0.4024 C   0  0  0  0  0  0  0  0  0  0  0  0
    0.5352    1.2320   -0.4223 C   0  0  0  0  0  0  0  0  0  0  0  0
   -0.3614    2.2534   -0.7819 C   0  0  0  0  0  0  0  0  0  0  0  0
   -1.6533    2.1714   -0.2817 C   0  0  0  0  0  0  0  0  0  0  0  0
   -2.0186    1.0981    0.5417 C   0  0  0  0  0  0  0  0  0  0  0  0
   -1.3972   -0.7243    1.5174 H   0  0  0  0  0  0  0  0  0  0  0  0
    0.9756   -0.5851    0.6258 H   0  0  0  0  0  0  0  0  0  0  0  0
   -0.0438    3.0731   -1.4165 H   0  0  0  0  0  0  0  0  0  0  0  0
   -2.3735    2.9430   -0.5310 H   0  0  0  0  0  0  0  0  0  0  0  0
    1.8129    1.3228   -0.9588 N   0  0  0  0  0  0  0  0  0  0  0  0
    2.7569    1.4726   -1.5248 N   0  0  0  0  0  0  0  0  0  0  0  0
    3.5063    0.0981    1.2398 B   0  0  0  0  0  0  0  0  0  0  0  0
    4.7376    0.5135    0.7647 F   0  0  0  0  0  0  0  0  0  0  0  0
    3.5691   -0.5862    2.4306 F   0  0  0  0  0  0  0  0  0  0  0  0
    2.6405    1.2370    1.3648 F   0  0  0  0  0  0  0  0  0  0  0  0
    2.8791   -0.7337    0.2321 F   0  0  0  0  0  0  0  0  0  0  0  0
   -3.0311    1.0463    0.9295 H   0  0  0  0  0  0  0  0  0  0  0  0
  1  7  1  0  0  0  0
  2  8  1  0  0  0  0
  2  1  2  0  0  0  0
  3  2  1  0  0  0  0
  4  3  2  0  0  0  0
  4  5  1  0  0  0  0
  5  6  2  0  0  0  0
  6  1  1  0  0  0  0
  6 18  1  0  0  0  0
  9  4  1  0  0  0  0
 10  5  1  0  0  0  0
 11  3  1  0  0  0  0
 12 11  1  0  0  0  0
 13 16  1  0  0  0  0
 13 15  1  0  0  0  0
 14 13  1  0  0  0  0
 17 13  1  0  0  0  0
M  RAD  2  11   2  12   3
M  END
