Coordinates from ORCA-job Ph-N2-BF4-B3LYPG-6-31G_dp-scan-d09-49-n400
 OpenBabel08281821203D

 18 17  0  0  0  0  0  0  0  0999 V2000
   -1.0044    0.2854    1.1591 C   0  0  0  0  0  0  0  0  0  0  0  0
    0.2496    0.2700    0.5553 C   0  0  0  0  0  0  0  0  0  0  0  0
    0.4532    1.2004   -0.4755 C   0  0  0  0  0  0  0  0  0  0  0  0
   -0.5140    2.1234   -0.9185 C   0  0  0  0  0  0  0  0  0  0  0  0
   -1.7452    2.1089   -0.2821 C   0  0  0  0  0  0  0  0  0  0  0  0
   -1.9862    1.1934    0.7529 C   0  0  0  0  0  0  0  0  0  0  0  0
   -1.2074   -0.4125    1.9642 H   0  0  0  0  0  0  0  0  0  0  0  0
    1.0588   -0.4011    0.8418 H   0  0  0  0  0  0  0  0  0  0  0  0
   -0.2914    2.8178   -1.7210 H   0  0  0  0  0  0  0  0  0  0  0  0
   -2.5159    2.8076   -0.5887 H   0  0  0  0  0  0  0  0  0  0  0  0
    1.6658    1.2199   -1.1472 N   0  0  0  0  0  0  0  0  0  0  0  0
    2.5599    1.2830   -1.8078 N   0  0  0  0  0  0  0  0  0  0  0  0
    3.6151    0.0714    1.1105 B   0  0  0  0  0  0  0  0  0  0  0  0
    4.3320   -0.1428    2.2702 F   0  0  0  0  0  0  0  0  0  0  0  0
    2.7963   -1.0640    0.8061 F   0  0  0  0  0  0  0  0  0  0  0  0
    2.7141    1.1796    1.2514 F   0  0  0  0  0  0  0  0  0  0  0  0
    4.4134    0.3425   -0.0112 F   0  0  0  0  0  0  0  0  0  0  0  0
   -2.9532    1.1930    1.2465 H   0  0  0  0  0  0  0  0  0  0  0  0
  1  7  1  0  0  0  0
  2  8  1  0  0  0  0
  2  1  2  0  0  0  0
  3  2  1  0  0  0  0
  4  3  2  0  0  0  0
  4  5  1  0  0  0  0
  5  6  2  0  0  0  0
  6  1  1  0  0  0  0
  6 18  1  0  0  0  0
  9  4  1  0  0  0  0
 10  5  1  0  0  0  0
 11  3  1  0  0  0  0
 12 11  1  0  0  0  0
 13 16  1  0  0  0  0
 13 14  1  0  0  0  0
 15 13  1  0  0  0  0
 17 13  1  0  0  0  0
M  RAD  2  11   2  12   3
M  END
