Coordinates from ORCA-job Ph-N2-BF4-B3LYPG-6-31G_dp-scan-d09-49-n400
 OpenBabel08281821203D

 18 17  0  0  0  0  0  0  0  0999 V2000
   -0.6233   -0.2059    0.3844 C   0  0  0  0  0  0  0  0  0  0  0  0
    0.5233    0.0296   -0.3731 C   0  0  0  0  0  0  0  0  0  0  0  0
    0.7949    1.3392   -0.8145 C   0  0  0  0  0  0  0  0  0  0  0  0
   -0.0997    2.3786   -0.5160 C   0  0  0  0  0  0  0  0  0  0  0  0
   -1.2271    2.1331    0.2628 C   0  0  0  0  0  0  0  0  0  0  0  0
   -1.4909    0.8386    0.7146 C   0  0  0  0  0  0  0  0  0  0  0  0
   -0.8345   -1.2151    0.7243 H   0  0  0  0  0  0  0  0  0  0  0  0
    1.1898   -0.7820   -0.6240 H   0  0  0  0  0  0  0  0  0  0  0  0
    0.1169    3.3704   -0.8976 H   0  0  0  0  0  0  0  0  0  0  0  0
   -1.9031    2.9466    0.5067 H   0  0  0  0  0  0  0  0  0  0  0  0
    1.8820    1.7423   -1.6337 N   0  0  0  0  0  0  0  0  0  0  0  0
    2.9777    1.2250   -1.7521 N   0  0  0  0  0  0  0  0  0  0  0  0
    2.3795    0.3853    2.1585 B   0  0  0  0  0  0  0  0  0  0  0  0
    3.1713    0.0945   -0.9648 F   0  0  0  0  0  0  0  0  0  0  0  0
    2.8064   -0.8136    1.8138 F   0  0  0  0  0  0  0  0  0  0  0  0
    2.9653    1.4656    1.6812 F   0  0  0  0  0  0  0  0  0  0  0  0
    1.3849    0.5035    3.0194 F   0  0  0  0  0  0  0  0  0  0  0  0
   -2.3730    0.6403    1.3158 H   0  0  0  0  0  0  0  0  0  0  0  0
  1  6  1  0  0  0  0
  1  7  1  0  0  0  0
  2  1  2  0  0  0  0
  3  4  2  0  0  0  0
  3  2  1  0  0  0  0
  4  5  1  0  0  0  0
  5 10  1  0  0  0  0
  5  6  2  0  0  0  0
  6 18  1  0  0  0  0
  8  2  1  0  0  0  0
  9  4  1  0  0  0  0
 11  3  1  0  0  0  0
 12 11  1  0  0  0  0
 12 14  1  0  0  0  0
 13 17  1  0  0  0  0
 15 13  1  0  0  0  0
 16 13  1  0  0  0  0
M  RAD  2  11   2  12   2
M  END
