Coordinates from ORCA-job Ph-N2-BF4-B3LYPG-6-31G_dp-scan-d09-49-n400
 OpenBabel08281821203D

 18 17  0  0  0  0  0  0  0  0999 V2000
   -1.1178    0.1041    0.8697 C   0  0  0  0  0  0  0  0  0  0  0  0
    0.1952    0.1529    0.4155 C   0  0  0  0  0  0  0  0  0  0  0  0
    0.5342    1.2362   -0.4075 C   0  0  0  0  0  0  0  0  0  0  0  0
   -0.3581    2.2558   -0.7831 C   0  0  0  0  0  0  0  0  0  0  0  0
   -1.6563    2.1750   -0.3000 C   0  0  0  0  0  0  0  0  0  0  0  0
   -2.0320    1.1040    0.5221 C   0  0  0  0  0  0  0  0  0  0  0  0
   -1.4238   -0.7155    1.5109 H   0  0  0  0  0  0  0  0  0  0  0  0
    0.9618   -0.5780    0.6511 H   0  0  0  0  0  0  0  0  0  0  0  0
   -0.0322    3.0733   -1.4164 H   0  0  0  0  0  0  0  0  0  0  0  0
   -2.3737    2.9453   -0.5614 H   0  0  0  0  0  0  0  0  0  0  0  0
    1.8196    1.3274   -0.9246 N   0  0  0  0  0  0  0  0  0  0  0  0
    2.7735    1.4816   -1.4732 N   0  0  0  0  0  0  0  0  0  0  0  0
    3.5194    0.0840    1.2327 B   0  0  0  0  0  0  0  0  0  0  0  0
    4.6801    0.5741    0.6511 F   0  0  0  0  0  0  0  0  0  0  0  0
    3.7329   -0.5862    2.4124 F   0  0  0  0  0  0  0  0  0  0  0  0
    2.6046    1.1721    1.4302 F   0  0  0  0  0  0  0  0  0  0  0  0
    2.8625   -0.7834    0.2797 F   0  0  0  0  0  0  0  0  0  0  0  0
   -3.0495    1.0531    0.8968 H   0  0  0  0  0  0  0  0  0  0  0  0
  1  7  1  0  0  0  0
  2  8  1  0  0  0  0
  2  1  2  0  0  0  0
  3  2  1  0  0  0  0
  4  3  2  0  0  0  0
  4  5  1  0  0  0  0
  5  6  2  0  0  0  0
  6  1  1  0  0  0  0
  6 18  1  0  0  0  0
  9  4  1  0  0  0  0
 10  5  1  0  0  0  0
 11  3  1  0  0  0  0
 12 11  1  0  0  0  0
 13 16  1  0  0  0  0
 13 15  1  0  0  0  0
 14 13  1  0  0  0  0
 17 13  1  0  0  0  0
M  RAD  2  11   2  12   3
M  END
