Coordinates from ORCA-job Ph-N2-BF4-B3LYPG-6-31G_dp-scan-d09-49-n400
 OpenBabel08281821203D

 18 17  0  0  0  0  0  0  0  0999 V2000
   -1.0314    0.2952    1.1611 C   0  0  0  0  0  0  0  0  0  0  0  0
    0.2418    0.3061    0.5985 C   0  0  0  0  0  0  0  0  0  0  0  0
    0.4580    1.2338   -0.4321 C   0  0  0  0  0  0  0  0  0  0  0  0
   -0.5151    2.1316   -0.9103 C   0  0  0  0  0  0  0  0  0  0  0  0
   -1.7660    2.0931   -0.3137 C   0  0  0  0  0  0  0  0  0  0  0  0
   -2.0205    1.1773    0.7172 C   0  0  0  0  0  0  0  0  0  0  0  0
   -1.2449   -0.4044    1.9620 H   0  0  0  0  0  0  0  0  0  0  0  0
    1.0540   -0.3475    0.9145 H   0  0  0  0  0  0  0  0  0  0  0  0
   -0.2832    2.8252   -1.7110 H   0  0  0  0  0  0  0  0  0  0  0  0
   -2.5421    2.7721   -0.6496 H   0  0  0  0  0  0  0  0  0  0  0  0
    1.6888    1.2660   -1.0708 N   0  0  0  0  0  0  0  0  0  0  0  0
    2.6134    1.3132   -1.6896 N   0  0  0  0  0  0  0  0  0  0  0  0
    3.6358    0.0440    1.0754 B   0  0  0  0  0  0  0  0  0  0  0  0
    4.4769   -0.1476    2.1477 F   0  0  0  0  0  0  0  0  0  0  0  0
    2.7744   -1.0800    0.8940 F   0  0  0  0  0  0  0  0  0  0  0  0
    2.7818    1.1759    1.2734 F   0  0  0  0  0  0  0  0  0  0  0  0
    4.3222    0.2666   -0.1380 F   0  0  0  0  0  0  0  0  0  0  0  0
   -3.0035    1.1554    1.1774 H   0  0  0  0  0  0  0  0  0  0  0  0
  1  7  1  0  0  0  0
  2  8  1  0  0  0  0
  2  1  2  0  0  0  0
  3  2  1  0  0  0  0
  4  3  2  0  0  0  0
  4  5  1  0  0  0  0
  5  6  2  0  0  0  0
  6  1  1  0  0  0  0
  6 18  1  0  0  0  0
  9  4  1  0  0  0  0
 10  5  1  0  0  0  0
 11  3  1  0  0  0  0
 12 11  1  0  0  0  0
 13 16  1  0  0  0  0
 13 14  1  0  0  0  0
 15 13  1  0  0  0  0
 17 13  1  0  0  0  0
M  RAD  2  11   2  12   3
M  END
