Coordinates from ORCA-job Ph-N2-BF4-B3LYPG-6-31G_dp-scan-d09-49-n400
 OpenBabel08281821203D

 18 17  0  0  0  0  0  0  0  0999 V2000
   -1.1086    0.1171    0.7659 C   0  0  0  0  0  0  0  0  0  0  0  0
    0.2253    0.2683    0.3988 C   0  0  0  0  0  0  0  0  0  0  0  0
    0.5411    1.3977   -0.3741 C   0  0  0  0  0  0  0  0  0  0  0  0
   -0.4019    2.3570   -0.7808 C   0  0  0  0  0  0  0  0  0  0  0  0
   -1.7199    2.1761   -0.3860 C   0  0  0  0  0  0  0  0  0  0  0  0
   -2.0691    1.0584    0.3836 C   0  0  0  0  0  0  0  0  0  0  0  0
   -1.3948   -0.7418    1.3635 H   0  0  0  0  0  0  0  0  0  0  0  0
    1.0017   -0.4358    0.6919 H   0  0  0  0  0  0  0  0  0  0  0  0
   -0.0950    3.2095   -1.3764 H   0  0  0  0  0  0  0  0  0  0  0  0
   -2.4732    2.9001   -0.6765 H   0  0  0  0  0  0  0  0  0  0  0  0
    1.8499    1.5839   -0.7914 N   0  0  0  0  0  0  0  0  0  0  0  0
    2.9370    1.6191   -1.0637 N   0  0  0  0  0  0  0  0  0  0  0  0
    3.5075   -0.0840    1.2783 B   0  0  0  0  0  0  0  0  0  0  0  0
    3.9739    0.1909   -0.0753 F   0  0  0  0  0  0  0  0  0  0  0  0
    4.5750   -0.2586    2.1104 F   0  0  0  0  0  0  0  0  0  0  0  0
    2.7094    1.0211    1.6444 F   0  0  0  0  0  0  0  0  0  0  0  0
    2.6847   -1.2260    1.2049 F   0  0  0  0  0  0  0  0  0  0  0  0
   -3.1024    0.9230    0.6883 H   0  0  0  0  0  0  0  0  0  0  0  0
  1  7  1  0  0  0  0
  2  8  1  0  0  0  0
  2  1  1  0  0  0  0
  3  2  2  0  0  0  0
  4  5  2  0  0  0  0
  4  3  1  0  0  0  0
  5  6  1  0  0  0  0
  6 18  1  0  0  0  0
  6  1  2  0  0  0  0
  9  4  1  0  0  0  0
 10  5  1  0  0  0  0
 11  3  1  0  0  0  0
 12 11  1  0  0  0  0
 13 16  1  0  0  0  0
 13 15  1  0  0  0  0
 14 13  1  0  0  0  0
 17 13  1  0  0  0  0
M  RAD  2  11   2  12   3
M  END
