Coordinates from ORCA-job Ph-N2-BF4-B3LYPG-6-31G_dp-scan-d09-49-n400
 OpenBabel08281821203D

 18 17  0  0  0  0  0  0  0  0999 V2000
   -1.1260    0.1278    0.8197 C   0  0  0  0  0  0  0  0  0  0  0  0
    0.2085    0.2518    0.4447 C   0  0  0  0  0  0  0  0  0  0  0  0
    0.5308    1.3584   -0.3557 C   0  0  0  0  0  0  0  0  0  0  0  0
   -0.3977    2.3243   -0.7846 C   0  0  0  0  0  0  0  0  0  0  0  0
   -1.7147    2.1684   -0.3785 C   0  0  0  0  0  0  0  0  0  0  0  0
   -2.0746    1.0734    0.4197 C   0  0  0  0  0  0  0  0  0  0  0  0
   -1.4219   -0.7127    1.4383 H   0  0  0  0  0  0  0  0  0  0  0  0
    0.9913   -0.4470    0.7365 H   0  0  0  0  0  0  0  0  0  0  0  0
   -0.0832    3.1586   -1.4017 H   0  0  0  0  0  0  0  0  0  0  0  0
   -2.4597    2.8954   -0.6825 H   0  0  0  0  0  0  0  0  0  0  0  0
    1.8370    1.5152   -0.7957 N   0  0  0  0  0  0  0  0  0  0  0  0
    2.8527    1.6665   -1.2271 N   0  0  0  0  0  0  0  0  0  0  0  0
    3.5504   -0.0652    1.2342 B   0  0  0  0  0  0  0  0  0  0  0  0
    4.3353    0.3209    0.1211 F   0  0  0  0  0  0  0  0  0  0  0  0
    4.3207   -0.3834    2.3212 F   0  0  0  0  0  0  0  0  0  0  0  0
    2.6699    1.0225    1.5271 F   0  0  0  0  0  0  0  0  0  0  0  0
    2.7300   -1.1594    0.8365 F   0  0  0  0  0  0  0  0  0  0  0  0
   -3.1081    0.9607    0.7326 H   0  0  0  0  0  0  0  0  0  0  0  0
  1  7  1  0  0  0  0
  2  8  1  0  0  0  0
  2  1  1  0  0  0  0
  3  2  2  0  0  0  0
  4  5  2  0  0  0  0
  4  3  1  0  0  0  0
  5  6  1  0  0  0  0
  6 18  1  0  0  0  0
  6  1  2  0  0  0  0
  9  4  1  0  0  0  0
 10  5  1  0  0  0  0
 11  3  1  0  0  0  0
 12 11  1  0  0  0  0
 13 16  1  0  0  0  0
 13 15  1  0  0  0  0
 14 13  1  0  0  0  0
 17 13  1  0  0  0  0
M  RAD  2  11   2  12   3
M  END
