Coordinates from ORCA-job Ph-N2-BF4-B3LYPG-6-31G_dp-scan-d09-49-n400
 OpenBabel08281821203D

 18 17  0  0  0  0  0  0  0  0999 V2000
   -1.1307    0.1311    0.8180 C   0  0  0  0  0  0  0  0  0  0  0  0
    0.2053    0.2557    0.4487 C   0  0  0  0  0  0  0  0  0  0  0  0
    0.5317    1.3606   -0.3531 C   0  0  0  0  0  0  0  0  0  0  0  0
   -0.3967    2.3233   -0.7883 C   0  0  0  0  0  0  0  0  0  0  0  0
   -1.7158    2.1676   -0.3880 C   0  0  0  0  0  0  0  0  0  0  0  0
   -2.0786    1.0745    0.4111 C   0  0  0  0  0  0  0  0  0  0  0  0
   -1.4286   -0.7084    1.4370 H   0  0  0  0  0  0  0  0  0  0  0  0
    0.9846   -0.4432    0.7475 H   0  0  0  0  0  0  0  0  0  0  0  0
   -0.0803    3.1562   -1.4063 H   0  0  0  0  0  0  0  0  0  0  0  0
   -2.4601    2.8930   -0.6973 H   0  0  0  0  0  0  0  0  0  0  0  0
    1.8408    1.5179   -0.7830 N   0  0  0  0  0  0  0  0  0  0  0  0
    2.8764    1.6469   -1.1762 N   0  0  0  0  0  0  0  0  0  0  0  0
    3.5461   -0.0653    1.2338 B   0  0  0  0  0  0  0  0  0  0  0  0
    4.2721    0.3459    0.0782 F   0  0  0  0  0  0  0  0  0  0  0  0
    4.3849   -0.3792    2.2681 F   0  0  0  0  0  0  0  0  0  0  0  0
    2.6721    1.0063    1.5747 F   0  0  0  0  0  0  0  0  0  0  0  0
    2.7307   -1.1681    0.8616 F   0  0  0  0  0  0  0  0  0  0  0  0
   -3.1134    0.9612    0.7193 H   0  0  0  0  0  0  0  0  0  0  0  0
  1  7  1  0  0  0  0
  2  8  1  0  0  0  0
  2  1  1  0  0  0  0
  3  2  2  0  0  0  0
  4  5  2  0  0  0  0
  4  3  1  0  0  0  0
  5  6  1  0  0  0  0
  6 18  1  0  0  0  0
  6  1  2  0  0  0  0
  9  4  1  0  0  0  0
 10  5  1  0  0  0  0
 11  3  1  0  0  0  0
 12 11  1  0  0  0  0
 13 16  1  0  0  0  0
 13 15  1  0  0  0  0
 14 13  1  0  0  0  0
 17 13  1  0  0  0  0
M  RAD  2  11   2  12   3
M  END
