Coordinates from ORCA-job Ph-N2-BF4-B3LYPG-6-31G_dp-scan-d09-49-n400
 OpenBabel08281821203D

 18 17  0  0  0  0  0  0  0  0999 V2000
   -0.9840    0.2633    1.1234 C   0  0  0  0  0  0  0  0  0  0  0  0
    0.2691    0.2815    0.5172 C   0  0  0  0  0  0  0  0  0  0  0  0
    0.4541    1.2384   -0.4925 C   0  0  0  0  0  0  0  0  0  0  0  0
   -0.5257    2.1633   -0.9047 C   0  0  0  0  0  0  0  0  0  0  0  0
   -1.7536    2.1161   -0.2640 C   0  0  0  0  0  0  0  0  0  0  0  0
   -1.9799    1.1675    0.7444 C   0  0  0  0  0  0  0  0  0  0  0  0
   -1.1741   -0.4593    1.9097 H   0  0  0  0  0  0  0  0  0  0  0  0
    1.0863   -0.3861    0.7981 H   0  0  0  0  0  0  0  0  0  0  0  0
   -0.3154    2.8820   -1.6889 H   0  0  0  0  0  0  0  0  0  0  0  0
   -2.5338    2.8141   -0.5475 H   0  0  0  0  0  0  0  0  0  0  0  0
    1.6543    1.2768   -1.1861 N   0  0  0  0  0  0  0  0  0  0  0  0
    2.5198    1.3416   -1.8835 N   0  0  0  0  0  0  0  0  0  0  0  0
    3.6159    0.0419    1.1489 B   0  0  0  0  0  0  0  0  0  0  0  0
    4.3587   -0.0235    2.3118 F   0  0  0  0  0  0  0  0  0  0  0  0
    2.7481   -1.0923    1.0524 F   0  0  0  0  0  0  0  0  0  0  0  0
    2.7595    1.2000    1.1449 F   0  0  0  0  0  0  0  0  0  0  0  0
    4.3872    0.1119   -0.0164 F   0  0  0  0  0  0  0  0  0  0  0  0
   -2.9459    1.1387    1.2388 H   0  0  0  0  0  0  0  0  0  0  0  0
  1  7  1  0  0  0  0
  2  8  1  0  0  0  0
  2  1  2  0  0  0  0
  3  2  1  0  0  0  0
  4  3  2  0  0  0  0
  4  5  1  0  0  0  0
  5  6  2  0  0  0  0
  6  1  1  0  0  0  0
  6 18  1  0  0  0  0
  9  4  1  0  0  0  0
 10  5  1  0  0  0  0
 11  3  1  0  0  0  0
 12 11  1  0  0  0  0
 13 14  1  0  0  0  0
 15 13  1  0  0  0  0
 16 13  1  0  0  0  0
 17 13  1  0  0  0  0
M  RAD  2  11   2  12   3
M  END
