Coordinates from ORCA-job Ph-N2-BF4-B3LYPG-6-31G_dp-scan-d09-49-n400
 OpenBabel08281821203D

 18 17  0  0  0  0  0  0  0  0999 V2000
   -0.5353   -0.1762    0.4513 C   0  0  0  0  0  0  0  0  0  0  0  0
    0.5312   -0.0016   -0.4325 C   0  0  0  0  0  0  0  0  0  0  0  0
    0.7880    1.2718   -0.9688 C   0  0  0  0  0  0  0  0  0  0  0  0
   -0.0401    2.3482   -0.6263 C   0  0  0  0  0  0  0  0  0  0  0  0
   -1.0827    2.1706    0.2811 C   0  0  0  0  0  0  0  0  0  0  0  0
   -1.3354    0.9081    0.8210 C   0  0  0  0  0  0  0  0  0  0  0  0
   -0.7376   -1.1639    0.8543 H   0  0  0  0  0  0  0  0  0  0  0  0
    1.1406   -0.8515   -0.7183 H   0  0  0  0  0  0  0  0  0  0  0  0
    0.1527    3.3162   -1.0769 H   0  0  0  0  0  0  0  0  0  0  0  0
   -1.7068    3.0158    0.5553 H   0  0  0  0  0  0  0  0  0  0  0  0
    1.7765    1.5439   -1.9706 N   0  0  0  0  0  0  0  0  0  0  0  0
    2.9518    1.1363   -1.8482 N   0  0  0  0  0  0  0  0  0  0  0  0
    2.1597    0.3120    2.2518 B   0  0  0  0  0  0  0  0  0  0  0  0
    3.2134    0.5506   -0.8808 F   0  0  0  0  0  0  0  0  0  0  0  0
    2.8906   -0.6070    1.6460 F   0  0  0  0  0  0  0  0  0  0  0  0
    2.3749    1.5900    2.0098 F   0  0  0  0  0  0  0  0  0  0  0  0
    1.2559   -0.0520    3.1413 F   0  0  0  0  0  0  0  0  0  0  0  0
   -2.1568    0.7649    1.5164 H   0  0  0  0  0  0  0  0  0  0  0  0
  1  6  1  0  0  0  0
  1  7  1  0  0  0  0
  2  1  2  0  0  0  0
  3  4  2  0  0  0  0
  3  2  1  0  0  0  0
  4  5  1  0  0  0  0
  5 10  1  0  0  0  0
  5  6  2  0  0  0  0
  6 18  1  0  0  0  0
  8  2  1  0  0  0  0
  9  4  1  0  0  0  0
 11 12  2  0  0  0  0
 11  3  1  0  0  0  0
 12 14  1  0  0  0  0
 13 17  1  0  0  0  0
 15 13  1  0  0  0  0
 16 13  1  0  0  0  0
M  END
