Coordinates from ORCA-job Ph-N2-BF4-B3LYPG-6-31G_dp-scan-d09-49-n400
 OpenBabel08281821203D

 18 17  0  0  0  0  0  0  0  0999 V2000
   -1.1160    0.1032    0.8699 C   0  0  0  0  0  0  0  0  0  0  0  0
    0.1962    0.1517    0.4134 C   0  0  0  0  0  0  0  0  0  0  0  0
    0.5342    1.2352   -0.4096 C   0  0  0  0  0  0  0  0  0  0  0  0
   -0.3582    2.2555   -0.7829 C   0  0  0  0  0  0  0  0  0  0  0  0
   -1.6556    2.1750   -0.2975 C   0  0  0  0  0  0  0  0  0  0  0  0
   -2.0303    1.1037    0.5245 C   0  0  0  0  0  0  0  0  0  0  0  0
   -1.4211   -0.7167    1.5111 H   0  0  0  0  0  0  0  0  0  0  0  0
    0.9630   -0.5796    0.6474 H   0  0  0  0  0  0  0  0  0  0  0  0
   -0.0330    3.0733   -1.4162 H   0  0  0  0  0  0  0  0  0  0  0  0
   -2.3730    2.9458   -0.5572 H   0  0  0  0  0  0  0  0  0  0  0  0
    1.8187    1.3261   -0.9291 N   0  0  0  0  0  0  0  0  0  0  0  0
    2.7713    1.4797   -1.4802 N   0  0  0  0  0  0  0  0  0  0  0  0
    3.5178    0.0859    1.2339 B   0  0  0  0  0  0  0  0  0  0  0  0
    4.6863    0.5698    0.6638 F   0  0  0  0  0  0  0  0  0  0  0  0
    3.7161   -0.5860    2.4154 F   0  0  0  0  0  0  0  0  0  0  0  0
    2.6064    1.1783    1.4236 F   0  0  0  0  0  0  0  0  0  0  0  0
    2.8649   -0.7782    0.2747 F   0  0  0  0  0  0  0  0  0  0  0  0
   -3.0472    1.0530    0.9009 H   0  0  0  0  0  0  0  0  0  0  0  0
  1  7  1  0  0  0  0
  2  8  1  0  0  0  0
  2  1  2  0  0  0  0
  3  2  1  0  0  0  0
  4  3  2  0  0  0  0
  4  5  1  0  0  0  0
  5  6  2  0  0  0  0
  6  1  1  0  0  0  0
  6 18  1  0  0  0  0
  9  4  1  0  0  0  0
 10  5  1  0  0  0  0
 11  3  1  0  0  0  0
 12 11  1  0  0  0  0
 13 16  1  0  0  0  0
 13 15  1  0  0  0  0
 14 13  1  0  0  0  0
 17 13  1  0  0  0  0
M  RAD  2  11   2  12   3
M  END
