Coordinates from ORCA-job Ph-N2-BF4-B3LYPG-6-31G_dp-scan-d09-49-n400
 OpenBabel08281821203D

 18 17  0  0  0  0  0  0  0  0999 V2000
   -1.1342    0.1122    0.8666 C   0  0  0  0  0  0  0  0  0  0  0  0
    0.1865    0.1666    0.4351 C   0  0  0  0  0  0  0  0  0  0  0  0
    0.5334    1.2486   -0.3862 C   0  0  0  0  0  0  0  0  0  0  0  0
   -0.3589    2.2604   -0.7828 C   0  0  0  0  0  0  0  0  0  0  0  0
   -1.6649    2.1739   -0.3222 C   0  0  0  0  0  0  0  0  0  0  0  0
   -2.0483    1.1044    0.4984 C   0  0  0  0  0  0  0  0  0  0  0  0
   -1.4467   -0.7070    1.5051 H   0  0  0  0  0  0  0  0  0  0  0  0
    0.9521   -0.5608    0.6856 H   0  0  0  0  0  0  0  0  0  0  0  0
   -0.0274    3.0765   -1.4150 H   0  0  0  0  0  0  0  0  0  0  0  0
   -2.3826    2.9379   -0.6005 H   0  0  0  0  0  0  0  0  0  0  0  0
    1.8273    1.3450   -0.8812 N   0  0  0  0  0  0  0  0  0  0  0  0
    2.7946    1.5014   -1.4061 N   0  0  0  0  0  0  0  0  0  0  0  0
    3.5347    0.0644    1.2216 B   0  0  0  0  0  0  0  0  0  0  0  0
    4.6236    0.5899    0.5297 F   0  0  0  0  0  0  0  0  0  0  0  0
    3.8817   -0.5781    2.3828 F   0  0  0  0  0  0  0  0  0  0  0  0
    2.6082    1.1267    1.4832 F   0  0  0  0  0  0  0  0  0  0  0  0
    2.8335   -0.8346    0.3370 F   0  0  0  0  0  0  0  0  0  0  0  0
   -3.0721    1.0484    0.8549 H   0  0  0  0  0  0  0  0  0  0  0  0
  1  7  1  0  0  0  0
  2  8  1  0  0  0  0
  2  1  2  0  0  0  0
  3  2  1  0  0  0  0
  4  3  2  0  0  0  0
  4  5  1  0  0  0  0
  5  6  2  0  0  0  0
  6 18  1  0  0  0  0
  6  1  1  0  0  0  0
  9  4  1  0  0  0  0
 10  5  1  0  0  0  0
 11  3  1  0  0  0  0
 12 11  1  0  0  0  0
 13 16  1  0  0  0  0
 13 15  1  0  0  0  0
 14 13  1  0  0  0  0
 17 13  1  0  0  0  0
M  RAD  2  11   2  12   3
M  END
