Coordinates from ORCA-job Ph-N2-BF4-B3LYPG-6-31G_dp-scan-d09-49-n400
 OpenBabel08281821203D

 18 17  0  0  0  0  0  0  0  0999 V2000
   -1.0630    0.3007    1.1643 C   0  0  0  0  0  0  0  0  0  0  0  0
    0.2233    0.3217    0.6330 C   0  0  0  0  0  0  0  0  0  0  0  0
    0.4591    1.2464   -0.3958 C   0  0  0  0  0  0  0  0  0  0  0  0
   -0.5114    2.1292   -0.9033 C   0  0  0  0  0  0  0  0  0  0  0  0
   -1.7777    2.0815   -0.3394 C   0  0  0  0  0  0  0  0  0  0  0  0
   -2.0496    1.1700    0.6902 C   0  0  0  0  0  0  0  0  0  0  0  0
   -1.2904   -0.3977    1.9625 H   0  0  0  0  0  0  0  0  0  0  0  0
    1.0294   -0.3283    0.9687 H   0  0  0  0  0  0  0  0  0  0  0  0
   -0.2659    2.8204   -1.7020 H   0  0  0  0  0  0  0  0  0  0  0  0
   -2.5519    2.7498   -0.7001 H   0  0  0  0  0  0  0  0  0  0  0  0
    1.7105    1.2915   -0.9919 N   0  0  0  0  0  0  0  0  0  0  0  0
    2.6843    1.3335   -1.5326 N   0  0  0  0  0  0  0  0  0  0  0  0
    3.6465    0.0344    1.0324 B   0  0  0  0  0  0  0  0  0  0  0  0
    4.5908   -0.1255    2.0088 F   0  0  0  0  0  0  0  0  0  0  0  0
    2.7724   -1.0838    0.9528 F   0  0  0  0  0  0  0  0  0  0  0  0
    2.8329    1.1794    1.2784 F   0  0  0  0  0  0  0  0  0  0  0  0
    4.2448    0.2125   -0.2452 F   0  0  0  0  0  0  0  0  0  0  0  0
   -3.0439    1.1403    1.1251 H   0  0  0  0  0  0  0  0  0  0  0  0
  1  7  1  0  0  0  0
  2  8  1  0  0  0  0
  2  1  2  0  0  0  0
  3  2  1  0  0  0  0
  4  3  2  0  0  0  0
  4  5  1  0  0  0  0
  5  6  2  0  0  0  0
  6 18  1  0  0  0  0
  6  1  1  0  0  0  0
  9  4  1  0  0  0  0
 10  5  1  0  0  0  0
 11  3  1  0  0  0  0
 12 11  1  0  0  0  0
 13 16  1  0  0  0  0
 13 14  1  0  0  0  0
 15 13  1  0  0  0  0
 17 13  1  0  0  0  0
M  RAD  2  11   2  12   3
M  END
