Coordinates from ORCA-job Ph-N2-BF4-B3LYPG-6-31G_dp-scan-d09-49-n400
 OpenBabel08281821203D

 18 17  0  0  0  0  0  0  0  0999 V2000
   -1.1085    0.1170    0.7671 C   0  0  0  0  0  0  0  0  0  0  0  0
    0.2252    0.2677    0.3992 C   0  0  0  0  0  0  0  0  0  0  0  0
    0.5405    1.3971   -0.3740 C   0  0  0  0  0  0  0  0  0  0  0  0
   -0.4021    2.3568   -0.7807 C   0  0  0  0  0  0  0  0  0  0  0  0
   -1.7198    2.1761   -0.3850 C   0  0  0  0  0  0  0  0  0  0  0  0
   -2.0689    1.0585    0.3850 C   0  0  0  0  0  0  0  0  0  0  0  0
   -1.3947   -0.7417    1.3649 H   0  0  0  0  0  0  0  0  0  0  0  0
    1.0028   -0.4356    0.6915 H   0  0  0  0  0  0  0  0  0  0  0  0
   -0.0954    3.2092   -1.3766 H   0  0  0  0  0  0  0  0  0  0  0  0
   -2.4732    2.9003   -0.6751 H   0  0  0  0  0  0  0  0  0  0  0  0
    1.8492    1.5814   -0.7918 N   0  0  0  0  0  0  0  0  0  0  0  0
    2.9337    1.6247   -1.0702 N   0  0  0  0  0  0  0  0  0  0  0  0
    3.5089   -0.0842    1.2761 B   0  0  0  0  0  0  0  0  0  0  0  0
    3.9875    0.1885   -0.0702 F   0  0  0  0  0  0  0  0  0  0  0  0
    4.5662   -0.2604    2.1214 F   0  0  0  0  0  0  0  0  0  0  0  0
    2.7077    1.0222    1.6362 F   0  0  0  0  0  0  0  0  0  0  0  0
    2.6833   -1.2251    1.1979 F   0  0  0  0  0  0  0  0  0  0  0  0
   -3.1020    0.9236    0.6902 H   0  0  0  0  0  0  0  0  0  0  0  0
  1  7  1  0  0  0  0
  2  8  1  0  0  0  0
  2  1  1  0  0  0  0
  3  2  2  0  0  0  0
  4  5  2  0  0  0  0
  4  3  1  0  0  0  0
  5  6  1  0  0  0  0
  6 18  1  0  0  0  0
  6  1  2  0  0  0  0
  9  4  1  0  0  0  0
 10  5  1  0  0  0  0
 11  3  1  0  0  0  0
 12 11  1  0  0  0  0
 13 16  1  0  0  0  0
 13 15  1  0  0  0  0
 14 13  1  0  0  0  0
 17 13  1  0  0  0  0
M  RAD  2  11   2  12   3
M  END
