Coordinates from ORCA-job Ph-N2-BF4-B3LYPG-6-31G_dp-scan-d09-49-n400
 OpenBabel08281821203D

 18 17  0  0  0  0  0  0  0  0999 V2000
   -1.1113    0.1008    0.8706 C   0  0  0  0  0  0  0  0  0  0  0  0
    0.1990    0.1492    0.4089 C   0  0  0  0  0  0  0  0  0  0  0  0
    0.5345    1.2335   -0.4141 C   0  0  0  0  0  0  0  0  0  0  0  0
   -0.3587    2.2549   -0.7823 C   0  0  0  0  0  0  0  0  0  0  0  0
   -1.6543    2.1745   -0.2919 C   0  0  0  0  0  0  0  0  0  0  0  0
   -2.0264    1.1024    0.5301 C   0  0  0  0  0  0  0  0  0  0  0  0
   -1.4143   -0.7196    1.5121 H   0  0  0  0  0  0  0  0  0  0  0  0
    0.9662   -0.5829    0.6391 H   0  0  0  0  0  0  0  0  0  0  0  0
   -0.0356    3.0734   -1.4157 H   0  0  0  0  0  0  0  0  0  0  0  0
   -2.3722    2.9462   -0.5476 H   0  0  0  0  0  0  0  0  0  0  0  0
    1.8166    1.3237   -0.9395 N   0  0  0  0  0  0  0  0  0  0  0  0
    2.7663    1.4757   -1.4958 N   0  0  0  0  0  0  0  0  0  0  0  0
    3.5141    0.0906    1.2364 B   0  0  0  0  0  0  0  0  0  0  0  0
    4.7027    0.5556    0.6952 F   0  0  0  0  0  0  0  0  0  0  0  0
    3.6719   -0.5856    2.4220 F   0  0  0  0  0  0  0  0  0  0  0  0
    2.6141    1.1962    1.4060 F   0  0  0  0  0  0  0  0  0  0  0  0
    2.8698   -0.7643    0.2619 F   0  0  0  0  0  0  0  0  0  0  0  0
   -3.0419    1.0518    0.9105 H   0  0  0  0  0  0  0  0  0  0  0  0
  1  7  1  0  0  0  0
  2  8  1  0  0  0  0
  2  1  2  0  0  0  0
  3  2  1  0  0  0  0
  4  3  2  0  0  0  0
  4  5  1  0  0  0  0
  5  6  2  0  0  0  0
  6  1  1  0  0  0  0
  6 18  1  0  0  0  0
  9  4  1  0  0  0  0
 10  5  1  0  0  0  0
 11  3  1  0  0  0  0
 12 11  1  0  0  0  0
 13 16  1  0  0  0  0
 13 15  1  0  0  0  0
 14 13  1  0  0  0  0
 17 13  1  0  0  0  0
M  RAD  2  11   2  12   3
M  END
