Coordinates from ORCA-job Ph-N2-BF4-B3LYPG-6-31G_dp-scan-d09-49-n400
 OpenBabel08281821203D

 18 17  0  0  0  0  0  0  0  0999 V2000
   -1.1324    0.1114    0.8673 C   0  0  0  0  0  0  0  0  0  0  0  0
    0.1875    0.1653    0.4333 C   0  0  0  0  0  0  0  0  0  0  0  0
    0.5335    1.2473   -0.3884 C   0  0  0  0  0  0  0  0  0  0  0  0
   -0.3588    2.2599   -0.7830 C   0  0  0  0  0  0  0  0  0  0  0  0
   -1.6640    2.1739   -0.3199 C   0  0  0  0  0  0  0  0  0  0  0  0
   -2.0465    1.1044    0.5011 C   0  0  0  0  0  0  0  0  0  0  0  0
   -1.4440   -0.7077    1.5063 H   0  0  0  0  0  0  0  0  0  0  0  0
    0.9536   -0.5620    0.6821 H   0  0  0  0  0  0  0  0  0  0  0  0
   -0.0279    3.0760   -1.4155 H   0  0  0  0  0  0  0  0  0  0  0  0
   -2.3817    2.9385   -0.5966 H   0  0  0  0  0  0  0  0  0  0  0  0
    1.8267    1.3430   -0.8855 N   0  0  0  0  0  0  0  0  0  0  0  0
    2.7922    1.4998   -1.4135 N   0  0  0  0  0  0  0  0  0  0  0  0
    3.5330    0.0662    1.2225 B   0  0  0  0  0  0  0  0  0  0  0  0
    4.6302    0.5890    0.5433 F   0  0  0  0  0  0  0  0  0  0  0  0
    3.8647   -0.5798    2.3865 F   0  0  0  0  0  0  0  0  0  0  0  0
    2.6068    1.1309    1.4767 F   0  0  0  0  0  0  0  0  0  0  0  0
    2.8371   -0.8292    0.3297 F   0  0  0  0  0  0  0  0  0  0  0  0
   -3.0696    1.0491    0.8596 H   0  0  0  0  0  0  0  0  0  0  0  0
  1  7  1  0  0  0  0
  2  8  1  0  0  0  0
  2  1  2  0  0  0  0
  3  2  1  0  0  0  0
  4  3  2  0  0  0  0
  4  5  1  0  0  0  0
  5  6  2  0  0  0  0
  6 18  1  0  0  0  0
  6  1  1  0  0  0  0
  9  4  1  0  0  0  0
 10  5  1  0  0  0  0
 11  3  1  0  0  0  0
 12 11  1  0  0  0  0
 13 16  1  0  0  0  0
 13 15  1  0  0  0  0
 14 13  1  0  0  0  0
 17 13  1  0  0  0  0
M  RAD  2  11   2  12   3
M  END
