Coordinates from ORCA-job Ph-N2-BF4-B3LYPG-6-31G_dp-scan-d09-49-n400
 OpenBabel08281821203D

 18 17  0  0  0  0  0  0  0  0999 V2000
   -1.0469    0.2988    1.1637 C   0  0  0  0  0  0  0  0  0  0  0  0
    0.2327    0.3143    0.6161 C   0  0  0  0  0  0  0  0  0  0  0  0
    0.4583    1.2397   -0.4142 C   0  0  0  0  0  0  0  0  0  0  0  0
   -0.5136    2.1298   -0.9075 C   0  0  0  0  0  0  0  0  0  0  0  0
   -1.7721    2.0873   -0.3266 C   0  0  0  0  0  0  0  0  0  0  0  0
   -2.0350    1.1741    0.7043 C   0  0  0  0  0  0  0  0  0  0  0  0
   -1.2671   -0.3999    1.9636 H   0  0  0  0  0  0  0  0  0  0  0  0
    1.0424   -0.3372    0.9414 H   0  0  0  0  0  0  0  0  0  0  0  0
   -0.2752    2.8217   -1.7078 H   0  0  0  0  0  0  0  0  0  0  0  0
   -2.5474    2.7608   -0.6749 H   0  0  0  0  0  0  0  0  0  0  0  0
    1.6991    1.2760   -1.0326 N   0  0  0  0  0  0  0  0  0  0  0  0
    2.6485    1.3200   -1.6137 N   0  0  0  0  0  0  0  0  0  0  0  0
    3.6419    0.0401    1.0542 B   0  0  0  0  0  0  0  0  0  0  0  0
    4.5325   -0.1430    2.0821 F   0  0  0  0  0  0  0  0  0  0  0  0
    2.7723   -1.0802    0.9158 F   0  0  0  0  0  0  0  0  0  0  0  0
    2.8074    1.1776    1.2802 F   0  0  0  0  0  0  0  0  0  0  0  0
    4.2864    0.2477   -0.1902 F   0  0  0  0  0  0  0  0  0  0  0  0
   -3.0237    1.1484    1.1520 H   0  0  0  0  0  0  0  0  0  0  0  0
  1  7  1  0  0  0  0
  2  8  1  0  0  0  0
  2  1  2  0  0  0  0
  3  2  1  0  0  0  0
  4  3  2  0  0  0  0
  4  5  1  0  0  0  0
  5  6  2  0  0  0  0
  6 18  1  0  0  0  0
  6  1  1  0  0  0  0
  9  4  1  0  0  0  0
 10  5  1  0  0  0  0
 11  3  1  0  0  0  0
 12 11  1  0  0  0  0
 13 16  1  0  0  0  0
 13 14  1  0  0  0  0
 15 13  1  0  0  0  0
 17 13  1  0  0  0  0
M  RAD  2  11   2  12   3
M  END
