Coordinates from ORCA-job Ph-N2-BF4-B3LYPG-6-31G_dp-scan-d09-49-n400
 OpenBabel08281821203D

 18 17  0  0  0  0  0  0  0  0999 V2000
   -0.9957    0.2611    1.1235 C   0  0  0  0  0  0  0  0  0  0  0  0
    0.2611    0.2761    0.5254 C   0  0  0  0  0  0  0  0  0  0  0  0
    0.4559    1.2326   -0.4831 C   0  0  0  0  0  0  0  0  0  0  0  0
   -0.5179    2.1602   -0.9013 C   0  0  0  0  0  0  0  0  0  0  0  0
   -1.7502    2.1168   -0.2682 C   0  0  0  0  0  0  0  0  0  0  0  0
   -1.9862    1.1688    0.7381 C   0  0  0  0  0  0  0  0  0  0  0  0
   -1.1936   -0.4613    1.9081 H   0  0  0  0  0  0  0  0  0  0  0  0
    1.0749   -0.3937    0.8090 H   0  0  0  0  0  0  0  0  0  0  0  0
   -0.3003    2.8788   -1.6836 H   0  0  0  0  0  0  0  0  0  0  0  0
   -2.5263    2.8175   -0.5562 H   0  0  0  0  0  0  0  0  0  0  0  0
    1.6632    1.2666   -1.1647 N   0  0  0  0  0  0  0  0  0  0  0  0
    2.5429    1.3230   -1.8447 N   0  0  0  0  0  0  0  0  0  0  0  0
    3.6147    0.0512    1.1365 B   0  0  0  0  0  0  0  0  0  0  0  0
    4.3969   -0.0170    2.2720 F   0  0  0  0  0  0  0  0  0  0  0  0
    2.7551   -1.0886    1.0554 F   0  0  0  0  0  0  0  0  0  0  0  0
    2.7523    1.2025    1.1684 F   0  0  0  0  0  0  0  0  0  0  0  0
    4.3490    0.1385   -0.0551 F   0  0  0  0  0  0  0  0  0  0  0  0
   -2.9555    1.1430    1.2263 H   0  0  0  0  0  0  0  0  0  0  0  0
  1  7  1  0  0  0  0
  2  8  1  0  0  0  0
  2  1  2  0  0  0  0
  3  2  1  0  0  0  0
  4  3  2  0  0  0  0
  4  5  1  0  0  0  0
  5  6  2  0  0  0  0
  6  1  1  0  0  0  0
  6 18  1  0  0  0  0
  9  4  1  0  0  0  0
 10  5  1  0  0  0  0
 11  3  1  0  0  0  0
 12 11  1  0  0  0  0
 13 16  1  0  0  0  0
 13 14  1  0  0  0  0
 15 13  1  0  0  0  0
 17 13  1  0  0  0  0
M  RAD  2  11   2  12   3
M  END
