Coordinates from ORCA-job Ph-N2-BF4-B3LYPG-6-31G_dp-scan-d09-49-n400
 OpenBabel08281821203D

 18 17  0  0  0  0  0  0  0  0999 V2000
   -0.9906    0.2618    1.1232 C   0  0  0  0  0  0  0  0  0  0  0  0
    0.2646    0.2780    0.5215 C   0  0  0  0  0  0  0  0  0  0  0  0
    0.4553    1.2349   -0.4873 C   0  0  0  0  0  0  0  0  0  0  0  0
   -0.5210    2.1616   -0.9026 C   0  0  0  0  0  0  0  0  0  0  0  0
   -1.7514    2.1168   -0.2661 C   0  0  0  0  0  0  0  0  0  0  0  0
   -1.9833    1.1682    0.7409 C   0  0  0  0  0  0  0  0  0  0  0  0
   -1.1851   -0.4608    1.9085 H   0  0  0  0  0  0  0  0  0  0  0  0
    1.0796   -0.3910    0.8043 H   0  0  0  0  0  0  0  0  0  0  0  0
   -0.3065    2.8803   -1.6856 H   0  0  0  0  0  0  0  0  0  0  0  0
   -2.5291    2.8165   -0.5520 H   0  0  0  0  0  0  0  0  0  0  0  0
    1.6592    1.2705   -1.1744 N   0  0  0  0  0  0  0  0  0  0  0  0
    2.5331    1.3301   -1.8617 N   0  0  0  0  0  0  0  0  0  0  0  0
    3.6148    0.0477    1.1419 B   0  0  0  0  0  0  0  0  0  0  0  0
    4.3801   -0.0193    2.2894 F   0  0  0  0  0  0  0  0  0  0  0  0
    2.7520   -1.0901    1.0542 F   0  0  0  0  0  0  0  0  0  0  0  0
    2.7547    1.2017    1.1582 F   0  0  0  0  0  0  0  0  0  0  0  0
    4.3652    0.1277   -0.0386 F   0  0  0  0  0  0  0  0  0  0  0  0
   -2.9512    1.1412    1.2320 H   0  0  0  0  0  0  0  0  0  0  0  0
  1  7  1  0  0  0  0
  2  8  1  0  0  0  0
  2  1  2  0  0  0  0
  3  2  1  0  0  0  0
  4  3  2  0  0  0  0
  4  5  1  0  0  0  0
  5  6  2  0  0  0  0
  6  1  1  0  0  0  0
  6 18  1  0  0  0  0
  9  4  1  0  0  0  0
 10  5  1  0  0  0  0
 11  3  1  0  0  0  0
 12 11  1  0  0  0  0
 13 16  1  0  0  0  0
 13 14  1  0  0  0  0
 15 13  1  0  0  0  0
 17 13  1  0  0  0  0
M  RAD  2  11   2  12   3
M  END
