Coordinates from ORCA-job Ph-N2-BF4-B3LYPG-6-31G_dp-scan-d09-49-n400
 OpenBabel08281821203D

 18 17  0  0  0  0  0  0  0  0999 V2000
   -0.9941    0.2613    1.1232 C   0  0  0  0  0  0  0  0  0  0  0  0
    0.2623    0.2767    0.5243 C   0  0  0  0  0  0  0  0  0  0  0  0
    0.4560    1.2333   -0.4844 C   0  0  0  0  0  0  0  0  0  0  0  0
   -0.5186    2.1606   -0.9017 C   0  0  0  0  0  0  0  0  0  0  0  0
   -1.7505    2.1168   -0.2677 C   0  0  0  0  0  0  0  0  0  0  0  0
   -1.9852    1.1686    0.7387 C   0  0  0  0  0  0  0  0  0  0  0  0
   -1.1910   -0.4611    1.9080 H   0  0  0  0  0  0  0  0  0  0  0  0
    1.0760   -0.3931    0.8083 H   0  0  0  0  0  0  0  0  0  0  0  0
   -0.3020    2.8792   -1.6843 H   0  0  0  0  0  0  0  0  0  0  0  0
   -2.5270    2.8172   -0.5552 H   0  0  0  0  0  0  0  0  0  0  0  0
    1.6619    1.2681   -1.1682 N   0  0  0  0  0  0  0  0  0  0  0  0
    2.5398    1.3256   -1.8505 N   0  0  0  0  0  0  0  0  0  0  0  0
    3.6146    0.0501    1.1386 B   0  0  0  0  0  0  0  0  0  0  0  0
    4.3936   -0.0181    2.2765 F   0  0  0  0  0  0  0  0  0  0  0  0
    2.7543   -1.0891    1.0562 F   0  0  0  0  0  0  0  0  0  0  0  0
    2.7526    1.2018    1.1672 F   0  0  0  0  0  0  0  0  0  0  0  0
    4.3521    0.1359   -0.0510 F   0  0  0  0  0  0  0  0  0  0  0  0
   -2.9542    1.1424    1.2278 H   0  0  0  0  0  0  0  0  0  0  0  0
  1  7  1  0  0  0  0
  2  8  1  0  0  0  0
  2  1  2  0  0  0  0
  3  2  1  0  0  0  0
  4  3  2  0  0  0  0
  4  5  1  0  0  0  0
  5  6  2  0  0  0  0
  6  1  1  0  0  0  0
  6 18  1  0  0  0  0
  9  4  1  0  0  0  0
 10  5  1  0  0  0  0
 11  3  1  0  0  0  0
 12 11  1  0  0  0  0
 13 16  1  0  0  0  0
 13 14  1  0  0  0  0
 15 13  1  0  0  0  0
 17 13  1  0  0  0  0
M  RAD  2  11   2  12   3
M  END
