Coordinates from ORCA-job Ph-N2-BF4-B3LYPG-6-31G_dp-scan-d09-49-n400
 OpenBabel08281821203D

 18 17  0  0  0  0  0  0  0  0999 V2000
   -1.0868    0.0945    0.8796 C   0  0  0  0  0  0  0  0  0  0  0  0
    0.2159    0.1476    0.3979 C   0  0  0  0  0  0  0  0  0  0  0  0
    0.5361    1.2330   -0.4299 C   0  0  0  0  0  0  0  0  0  0  0  0
   -0.3657    2.2523   -0.7824 C   0  0  0  0  0  0  0  0  0  0  0  0
   -1.6537    2.1671   -0.2727 C   0  0  0  0  0  0  0  0  0  0  0  0
   -2.0105    1.0930    0.5532 C   0  0  0  0  0  0  0  0  0  0  0  0
   -1.3767   -0.7274    1.5251 H   0  0  0  0  0  0  0  0  0  0  0  0
    0.9882   -0.5827    0.6165 H   0  0  0  0  0  0  0  0  0  0  0  0
   -0.0549    3.0728   -1.4194 H   0  0  0  0  0  0  0  0  0  0  0  0
   -2.3776    2.9369   -0.5168 H   0  0  0  0  0  0  0  0  0  0  0  0
    1.8085    1.3258   -0.9784 N   0  0  0  0  0  0  0  0  0  0  0  0
    2.7463    1.4749   -1.5545 N   0  0  0  0  0  0  0  0  0  0  0  0
    3.4982    0.1024    1.2426 B   0  0  0  0  0  0  0  0  0  0  0  0
    4.7699    0.4614    0.8416 F   0  0  0  0  0  0  0  0  0  0  0  0
    3.4583   -0.5853    2.4338 F   0  0  0  0  0  0  0  0  0  0  0  0
    2.6737    1.2762    1.3210 F   0  0  0  0  0  0  0  0  0  0  0  0
    2.8914   -0.7047    0.2006 F   0  0  0  0  0  0  0  0  0  0  0  0
   -3.0201    1.0383    0.9481 H   0  0  0  0  0  0  0  0  0  0  0  0
  1  7  1  0  0  0  0
  2  8  1  0  0  0  0
  2  1  2  0  0  0  0
  3  2  1  0  0  0  0
  4  3  2  0  0  0  0
  4  5  1  0  0  0  0
  5  6  2  0  0  0  0
  6  1  1  0  0  0  0
  6 18  1  0  0  0  0
  9  4  1  0  0  0  0
 10  5  1  0  0  0  0
 11  3  1  0  0  0  0
 12 11  1  0  0  0  0
 13 16  1  0  0  0  0
 13 15  1  0  0  0  0
 14 13  1  0  0  0  0
 17 13  1  0  0  0  0
M  RAD  2  11   2  12   3
M  END
