Coordinates from ORCA-job Ph-N2-BF4-B3LYPG-6-31G_dp-scan-d09-49-n400
 OpenBabel08281821203D

 18 17  0  0  0  0  0  0  0  0999 V2000
   -1.0439    0.0965    0.6866 C   0  0  0  0  0  0  0  0  0  0  0  0
    0.2829    0.3032    0.3217 C   0  0  0  0  0  0  0  0  0  0  0  0
    0.5685    1.4695   -0.4080 C   0  0  0  0  0  0  0  0  0  0  0  0
   -0.4086    2.4090   -0.7703 C   0  0  0  0  0  0  0  0  0  0  0  0
   -1.7229    2.1721   -0.3894 C   0  0  0  0  0  0  0  0  0  0  0  0
   -2.0367    1.0174    0.3371 C   0  0  0  0  0  0  0  0  0  0  0  0
   -1.2997   -0.7909    1.2557 H   0  0  0  0  0  0  0  0  0  0  0  0
    1.0633   -0.3944    0.6039 H   0  0  0  0  0  0  0  0  0  0  0  0
   -0.1269    3.2935   -1.3308 H   0  0  0  0  0  0  0  0  0  0  0  0
   -2.4988    2.8819   -0.6551 H   0  0  0  0  0  0  0  0  0  0  0  0
    1.8738    1.7325   -0.8158 N   0  0  0  0  0  0  0  0  0  0  0  0
    2.9851    1.5193   -0.9230 N   0  0  0  0  0  0  0  0  0  0  0  0
    3.4401   -0.0966    1.3830 B   0  0  0  0  0  0  0  0  0  0  0  0
    3.3876   -0.0815   -0.1510 F   0  0  0  0  0  0  0  0  0  0  0  0
    4.7379   -0.2695    1.7434 F   0  0  0  0  0  0  0  0  0  0  0  0
    2.8994    1.1273    1.7531 F   0  0  0  0  0  0  0  0  0  0  0  0
    2.6040   -1.1499    1.7280 F   0  0  0  0  0  0  0  0  0  0  0  0
   -3.0645    0.8366    0.6365 H   0  0  0  0  0  0  0  0  0  0  0  0
  1  7  1  0  0  0  0
  2  8  1  0  0  0  0
  2  1  2  0  0  0  0
  3  2  1  0  0  0  0
  4  3  2  0  0  0  0
  4  5  1  0  0  0  0
  5  6  2  0  0  0  0
  6 18  1  0  0  0  0
  6  1  1  0  0  0  0
  9  4  1  0  0  0  0
 10  5  1  0  0  0  0
 11  3  1  0  0  0  0
 12 11  1  0  0  0  0
 13 17  1  0  0  0  0
 13 15  1  0  0  0  0
 13 16  1  0  0  0  0
 14 13  1  0  0  0  0
M  RAD  2  11   2  12   3
M  END
