Coordinates from ORCA-job Ph-N2-BF4-B3LYPG-6-31G_dp-scan-d09-49-n400
 OpenBabel08281821203D

 18 17  0  0  0  0  0  0  0  0999 V2000
   -1.1071    0.0996    0.8714 C   0  0  0  0  0  0  0  0  0  0  0  0
    0.2018    0.1485    0.4059 C   0  0  0  0  0  0  0  0  0  0  0  0
    0.5347    1.2332   -0.4176 C   0  0  0  0  0  0  0  0  0  0  0  0
   -0.3597    2.2548   -0.7824 C   0  0  0  0  0  0  0  0  0  0  0  0
   -1.6539    2.1738   -0.2882 C   0  0  0  0  0  0  0  0  0  0  0  0
   -2.0235    1.1011    0.5342 C   0  0  0  0  0  0  0  0  0  0  0  0
   -1.4079   -0.7212    1.5134 H   0  0  0  0  0  0  0  0  0  0  0  0
    0.9696   -0.5837    0.6337 H   0  0  0  0  0  0  0  0  0  0  0  0
   -0.0387    3.0738   -1.4162 H   0  0  0  0  0  0  0  0  0  0  0  0
   -2.3727    2.9456   -0.5413 H   0  0  0  0  0  0  0  0  0  0  0  0
    1.8150    1.3237   -0.9472 N   0  0  0  0  0  0  0  0  0  0  0  0
    2.7619    1.4755   -1.5080 N   0  0  0  0  0  0  0  0  0  0  0  0
    3.5114    0.0925    1.2385 B   0  0  0  0  0  0  0  0  0  0  0  0
    4.7147    0.5422    0.7192 F   0  0  0  0  0  0  0  0  0  0  0  0
    3.6392   -0.5854    2.4270 F   0  0  0  0  0  0  0  0  0  0  0  0
    2.6203    1.2080    1.3922 F   0  0  0  0  0  0  0  0  0  0  0  0
    2.8730   -0.7561    0.2537 F   0  0  0  0  0  0  0  0  0  0  0  0
   -3.0378    1.0500    0.9174 H   0  0  0  0  0  0  0  0  0  0  0  0
  1  7  1  0  0  0  0
  2  8  1  0  0  0  0
  2  1  2  0  0  0  0
  3  2  1  0  0  0  0
  4  3  2  0  0  0  0
  4  5  1  0  0  0  0
  5  6  2  0  0  0  0
  6  1  1  0  0  0  0
  6 18  1  0  0  0  0
  9  4  1  0  0  0  0
 10  5  1  0  0  0  0
 11  3  1  0  0  0  0
 12 11  1  0  0  0  0
 13 16  1  0  0  0  0
 13 15  1  0  0  0  0
 14 13  1  0  0  0  0
 17 13  1  0  0  0  0
M  RAD  2  11   2  12   3
M  END
