Coordinates from ORCA-job Ph-N2-BF4-B3LYPG-6-31G_dp-scan-d09-49-n400
 OpenBabel08281821203D

 18 17  0  0  0  0  0  0  0  0999 V2000
   -1.1424    0.1124    0.8603 C   0  0  0  0  0  0  0  0  0  0  0  0
    0.1817    0.1700    0.4393 C   0  0  0  0  0  0  0  0  0  0  0  0
    0.5329    1.2540   -0.3774 C   0  0  0  0  0  0  0  0  0  0  0  0
   -0.3581    2.2651   -0.7786 C   0  0  0  0  0  0  0  0  0  0  0  0
   -1.6675    2.1756   -0.3282 C   0  0  0  0  0  0  0  0  0  0  0  0
   -2.0555    1.1036    0.4869 C   0  0  0  0  0  0  0  0  0  0  0  0
   -1.4586   -0.7091    1.4941 H   0  0  0  0  0  0  0  0  0  0  0  0
    0.9456   -0.5579    0.6947 H   0  0  0  0  0  0  0  0  0  0  0  0
   -0.0231    3.0829   -1.4069 H   0  0  0  0  0  0  0  0  0  0  0  0
   -2.3842    2.9390   -0.6104 H   0  0  0  0  0  0  0  0  0  0  0  0
    1.8301    1.3518   -0.8638 N   0  0  0  0  0  0  0  0  0  0  0  0
    2.8020    1.5064   -1.3810 N   0  0  0  0  0  0  0  0  0  0  0  0
    3.5412    0.0575    1.2188 B   0  0  0  0  0  0  0  0  0  0  0  0
    4.5934    0.5869    0.4693 F   0  0  0  0  0  0  0  0  0  0  0  0
    3.9512   -0.5547    2.3749 F   0  0  0  0  0  0  0  0  0  0  0  0
    2.6138    1.1136    1.4987 F   0  0  0  0  0  0  0  0  0  0  0  0
    2.8202   -0.8657    0.3804 F   0  0  0  0  0  0  0  0  0  0  0  0
   -3.0821    1.0448    0.8347 H   0  0  0  0  0  0  0  0  0  0  0  0
  1  7  1  0  0  0  0
  2  8  1  0  0  0  0
  2  1  2  0  0  0  0
  3  2  1  0  0  0  0
  4  3  2  0  0  0  0
  4  5  1  0  0  0  0
  5  6  2  0  0  0  0
  6 18  1  0  0  0  0
  6  1  1  0  0  0  0
  9  4  1  0  0  0  0
 10  5  1  0  0  0  0
 11  3  1  0  0  0  0
 12 11  1  0  0  0  0
 13 16  1  0  0  0  0
 13 15  1  0  0  0  0
 14 13  1  0  0  0  0
 17 13  1  0  0  0  0
M  RAD  2  11   2  12   3
M  END
