Coordinates from ORCA-job Ph-N2-BF4-B3LYPG-6-31G_dp-scan-d09-49-n400
 OpenBabel08281821203D

 18 17  0  0  0  0  0  0  0  0999 V2000
   -1.1538    0.1470    0.6420 C   0  0  0  0  0  0  0  0  0  0  0  0
    0.1816    0.4406    0.3795 C   0  0  0  0  0  0  0  0  0  0  0  0
    0.4799    1.5921   -0.3751 C   0  0  0  0  0  0  0  0  0  0  0  0
   -0.5473    2.4287   -0.8421 C   0  0  0  0  0  0  0  0  0  0  0  0
   -1.8759    2.1091   -0.5839 C   0  0  0  0  0  0  0  0  0  0  0  0
   -2.1790    0.9663    0.1601 C   0  0  0  0  0  0  0  0  0  0  0  0
   -1.3949   -0.7347    1.2275 H   0  0  0  0  0  0  0  0  0  0  0  0
    0.9699   -0.1895    0.7607 H   0  0  0  0  0  0  0  0  0  0  0  0
   -0.2781    3.3164   -1.4041 H   0  0  0  0  0  0  0  0  0  0  0  0
   -2.6692    2.7508   -0.9530 H   0  0  0  0  0  0  0  0  0  0  0  0
    1.7738    2.0501   -0.7057 N   0  0  0  0  0  0  0  0  0  0  0  0
    2.8725    1.5871   -0.6460 N   0  0  0  0  0  0  0  0  0  0  0  0
    3.9182   -0.3020    1.7077 B   0  0  0  0  0  0  0  0  0  0  0  0
    2.8937    0.1798   -0.1232 F   0  0  0  0  0  0  0  0  0  0  0  0
    4.8959   -0.9860    1.1374 F   0  0  0  0  0  0  0  0  0  0  0  0
    4.1135    0.9569    2.0747 F   0  0  0  0  0  0  0  0  0  0  0  0
    2.8540   -0.9530    2.1778 F   0  0  0  0  0  0  0  0  0  0  0  0
   -3.2144    0.7162    0.3717 H   0  0  0  0  0  0  0  0  0  0  0  0
  1  7  1  0  0  0  0
  2  1  1  0  0  0  0
  2  8  1  0  0  0  0
  3  2  2  0  0  0  0
  4  5  2  0  0  0  0
  4  3  1  0  0  0  0
  5  6  1  0  0  0  0
  6 18  1  0  0  0  0
  6  1  2  0  0  0  0
  9  4  1  0  0  0  0
 10  5  1  0  0  0  0
 11 12  1  0  0  0  0
 11  3  1  0  0  0  0
 12 14  1  0  0  0  0
 13 16  1  0  0  0  0
 13 17  1  0  0  0  0
 15 13  1  0  0  0  0
M  RAD  2  11   2  12   2
M  END
