Coordinates from ORCA-job Ph-N2-BF4-B3LYPG-6-31G_dp-scan-d09-49-n400
 OpenBabel08281821203D

 18 17  0  0  0  0  0  0  0  0999 V2000
   -0.9725    0.2669    1.1238 C   0  0  0  0  0  0  0  0  0  0  0  0
    0.2770    0.2881    0.5099 C   0  0  0  0  0  0  0  0  0  0  0  0
    0.4517    1.2446   -0.5023 C   0  0  0  0  0  0  0  0  0  0  0  0
   -0.5345    2.1656   -0.9094 C   0  0  0  0  0  0  0  0  0  0  0  0
   -1.7581    2.1146   -0.2613 C   0  0  0  0  0  0  0  0  0  0  0  0
   -1.9742    1.1666    0.7500 C   0  0  0  0  0  0  0  0  0  0  0  0
   -1.1549   -0.4551    1.9124 H   0  0  0  0  0  0  0  0  0  0  0  0
    1.0966   -0.3781    0.7885 H   0  0  0  0  0  0  0  0  0  0  0  0
   -0.3321    2.8838   -1.6961 H   0  0  0  0  0  0  0  0  0  0  0  0
   -2.5428    2.8090   -0.5412 H   0  0  0  0  0  0  0  0  0  0  0  0
    1.6450    1.2897   -1.2071 N   0  0  0  0  0  0  0  0  0  0  0  0
    2.4966    1.3650   -1.9206 N   0  0  0  0  0  0  0  0  0  0  0  0
    3.6184    0.0305    1.1623 B   0  0  0  0  0  0  0  0  0  0  0  0
    4.3256   -0.0326    2.3482 F   0  0  0  0  0  0  0  0  0  0  0  0
    2.7428   -1.0972    1.0505 F   0  0  0  0  0  0  0  0  0  0  0  0
    2.7694    1.1950    1.1258 F   0  0  0  0  0  0  0  0  0  0  0  0
    4.4236    0.0846    0.0218 F   0  0  0  0  0  0  0  0  0  0  0  0
   -2.9370    1.1349    1.2507 H   0  0  0  0  0  0  0  0  0  0  0  0
  1  7  1  0  0  0  0
  2  8  1  0  0  0  0
  2  1  2  0  0  0  0
  3  2  1  0  0  0  0
  4  3  2  0  0  0  0
  4  5  1  0  0  0  0
  5  6  2  0  0  0  0
  6  1  1  0  0  0  0
  6 18  1  0  0  0  0
  9  4  1  0  0  0  0
 10  5  1  0  0  0  0
 11  3  1  0  0  0  0
 12 11  1  0  0  0  0
 13 14  1  0  0  0  0
 15 13  1  0  0  0  0
 16 13  1  0  0  0  0
 17 13  1  0  0  0  0
M  RAD  2  11   2  12   3
M  END
