Coordinates from ORCA-job Ph-N2-BF4-B3LYPG-6-31G_dp-scan-d09-49-n400
 OpenBabel08281821203D

 18 17  0  0  0  0  0  0  0  0999 V2000
   -1.0854    0.0946    0.8797 C   0  0  0  0  0  0  0  0  0  0  0  0
    0.2170    0.1481    0.3972 C   0  0  0  0  0  0  0  0  0  0  0  0
    0.5362    1.2335   -0.4307 C   0  0  0  0  0  0  0  0  0  0  0  0
   -0.3662    2.2525   -0.7827 C   0  0  0  0  0  0  0  0  0  0  0  0
   -1.6538    2.1670   -0.2722 C   0  0  0  0  0  0  0  0  0  0  0  0
   -2.0097    1.0927    0.5540 C   0  0  0  0  0  0  0  0  0  0  0  0
   -1.3746   -0.7274    1.5255 H   0  0  0  0  0  0  0  0  0  0  0  0
    0.9895   -0.5821    0.6157 H   0  0  0  0  0  0  0  0  0  0  0  0
   -0.0562    3.0731   -1.4199 H   0  0  0  0  0  0  0  0  0  0  0  0
   -2.3782    2.9365   -0.5158 H   0  0  0  0  0  0  0  0  0  0  0  0
    1.8080    1.3267   -0.9804 N   0  0  0  0  0  0  0  0  0  0  0  0
    2.7447    1.4766   -1.5581 N   0  0  0  0  0  0  0  0  0  0  0  0
    3.4976    0.1017    1.2434 B   0  0  0  0  0  0  0  0  0  0  0  0
    4.7716    0.4580    0.8469 F   0  0  0  0  0  0  0  0  0  0  0  0
    3.4531   -0.5850    2.4352 F   0  0  0  0  0  0  0  0  0  0  0  0
    2.6741    1.2767    1.3184 F   0  0  0  0  0  0  0  0  0  0  0  0
    2.8919   -0.7049    0.2004 F   0  0  0  0  0  0  0  0  0  0  0  0
   -3.0190    1.0377    0.9495 H   0  0  0  0  0  0  0  0  0  0  0  0
  1  7  1  0  0  0  0
  2  8  1  0  0  0  0
  2  1  2  0  0  0  0
  3  2  1  0  0  0  0
  4  3  2  0  0  0  0
  4  5  1  0  0  0  0
  5  6  2  0  0  0  0
  6  1  1  0  0  0  0
  6 18  1  0  0  0  0
  9  4  1  0  0  0  0
 10  5  1  0  0  0  0
 11  3  1  0  0  0  0
 12 11  1  0  0  0  0
 13 16  1  0  0  0  0
 13 15  1  0  0  0  0
 14 13  1  0  0  0  0
 17 13  1  0  0  0  0
M  RAD  2  11   2  12   3
M  END
