Coordinates from ORCA-job Ph-N2-BF4-B3LYPG-6-31G_dp-scan-d09-49-n400
 OpenBabel08281821203D

 18 17  0  0  0  0  0  0  0  0999 V2000
   -1.1287    0.1099    0.8685 C   0  0  0  0  0  0  0  0  0  0  0  0
    0.1894    0.1621    0.4291 C   0  0  0  0  0  0  0  0  0  0  0  0
    0.5338    1.2440   -0.3933 C   0  0  0  0  0  0  0  0  0  0  0  0
   -0.3585    2.2583   -0.7835 C   0  0  0  0  0  0  0  0  0  0  0  0
   -1.6619    2.1741   -0.3151 C   0  0  0  0  0  0  0  0  0  0  0  0
   -2.0427    1.1047    0.5068 C   0  0  0  0  0  0  0  0  0  0  0  0
   -1.4390   -0.7090    1.5085 H   0  0  0  0  0  0  0  0  0  0  0  0
    0.9557   -0.5661    0.6748 H   0  0  0  0  0  0  0  0  0  0  0  0
   -0.0288    3.0744   -1.4167 H   0  0  0  0  0  0  0  0  0  0  0  0
   -2.3794    2.9402   -0.5881 H   0  0  0  0  0  0  0  0  0  0  0  0
    1.8251    1.3384   -0.8954 N   0  0  0  0  0  0  0  0  0  0  0  0
    2.7878    1.4951   -1.4284 N   0  0  0  0  0  0  0  0  0  0  0  0
    3.5293    0.0709    1.2247 B   0  0  0  0  0  0  0  0  0  0  0  0
    4.6432    0.5885    0.5719 F   0  0  0  0  0  0  0  0  0  0  0  0
    3.8310   -0.5840    2.3925 F   0  0  0  0  0  0  0  0  0  0  0  0
    2.6041    1.1399    1.4661 F   0  0  0  0  0  0  0  0  0  0  0  0
    2.8444   -0.8162    0.3139 F   0  0  0  0  0  0  0  0  0  0  0  0
   -3.0643    1.0509    0.8697 H   0  0  0  0  0  0  0  0  0  0  0  0
  1  7  1  0  0  0  0
  2  8  1  0  0  0  0
  2  1  2  0  0  0  0
  3  2  1  0  0  0  0
  4  3  2  0  0  0  0
  4  5  1  0  0  0  0
  5  6  2  0  0  0  0
  6  1  1  0  0  0  0
  6 18  1  0  0  0  0
  9  4  1  0  0  0  0
 10  5  1  0  0  0  0
 11  3  1  0  0  0  0
 12 11  1  0  0  0  0
 13 16  1  0  0  0  0
 13 15  1  0  0  0  0
 14 13  1  0  0  0  0
 17 13  1  0  0  0  0
M  RAD  2  11   2  12   3
M  END
