Coordinates from ORCA-job Ph-N2-BF4-B3LYPG-6-31G_dp-scan-d09-49-n400
 OpenBabel08281821203D

 18 17  0  0  0  0  0  0  0  0999 V2000
   -0.5458   -0.1766    0.4871 C   0  0  0  0  0  0  0  0  0  0  0  0
    0.4918   -0.0492   -0.4397 C   0  0  0  0  0  0  0  0  0  0  0  0
    0.7691    1.2016   -1.0149 C   0  0  0  0  0  0  0  0  0  0  0  0
   -0.0118    2.3098   -0.6654 C   0  0  0  0  0  0  0  0  0  0  0  0
   -1.0372    2.1775    0.2704 C   0  0  0  0  0  0  0  0  0  0  0  0
   -1.3076    0.9367    0.8510 C   0  0  0  0  0  0  0  0  0  0  0  0
   -0.7600   -1.1486    0.9212 H   0  0  0  0  0  0  0  0  0  0  0  0
    1.0684   -0.9201   -0.7366 H   0  0  0  0  0  0  0  0  0  0  0  0
    0.1963    3.2667   -1.1335 H   0  0  0  0  0  0  0  0  0  0  0  0
   -1.6303    3.0458    0.5422 H   0  0  0  0  0  0  0  0  0  0  0  0
    1.7572    1.3634   -2.0499 N   0  0  0  0  0  0  0  0  0  0  0  0
    2.9769    1.1986   -1.7256 N   0  0  0  0  0  0  0  0  0  0  0  0
    2.1269    0.2641    2.2107 B   0  0  0  0  0  0  0  0  0  0  0  0
    3.2137    0.9815   -0.7572 F   0  0  0  0  0  0  0  0  0  0  0  0
    2.8754   -0.5990    1.5433 F   0  0  0  0  0  0  0  0  0  0  0  0
    2.2743    1.5566    1.9921 F   0  0  0  0  0  0  0  0  0  0  0  0
    1.2954   -0.1664    3.1380 F   0  0  0  0  0  0  0  0  0  0  0  0
   -2.1122    0.8335    1.5726 H   0  0  0  0  0  0  0  0  0  0  0  0
  1  6  1  0  0  0  0
  1  7  1  0  0  0  0
  2  1  2  0  0  0  0
  3  4  2  0  0  0  0
  3  2  1  0  0  0  0
  4  5  1  0  0  0  0
  5 10  1  0  0  0  0
  5  6  2  0  0  0  0
  6 18  1  0  0  0  0
  8  2  1  0  0  0  0
  9  4  1  0  0  0  0
 11 12  2  0  0  0  0
 11  3  1  0  0  0  0
 12 14  1  0  0  0  0
 13 17  1  0  0  0  0
 15 13  1  0  0  0  0
 16 13  1  0  0  0  0
M  END
