Coordinates from ORCA-job Ph-N2-BF4-B3LYPG-6-31G_dp-scan-d09-49-n400
 OpenBabel08281821203D

 18 17  0  0  0  0  0  0  0  0999 V2000
   -1.1364    0.1377    0.6516 C   0  0  0  0  0  0  0  0  0  0  0  0
    0.2003    0.4141    0.3787 C   0  0  0  0  0  0  0  0  0  0  0  0
    0.5015    1.5672   -0.3712 C   0  0  0  0  0  0  0  0  0  0  0  0
   -0.5144    2.4229   -0.8267 C   0  0  0  0  0  0  0  0  0  0  0  0
   -1.8440    2.1194   -0.5554 C   0  0  0  0  0  0  0  0  0  0  0  0
   -2.1539    0.9758    0.1853 C   0  0  0  0  0  0  0  0  0  0  0  0
   -1.3845   -0.7441    1.2338 H   0  0  0  0  0  0  0  0  0  0  0  0
    0.9866   -0.2275    0.7464 H   0  0  0  0  0  0  0  0  0  0  0  0
   -0.2388    3.3089   -1.3882 H   0  0  0  0  0  0  0  0  0  0  0  0
   -2.6327    2.7732   -0.9126 H   0  0  0  0  0  0  0  0  0  0  0  0
    1.8023    1.9913   -0.7069 N   0  0  0  0  0  0  0  0  0  0  0  0
    2.9014    1.5570   -0.6582 N   0  0  0  0  0  0  0  0  0  0  0  0
    3.8080   -0.2427    1.6242 B   0  0  0  0  0  0  0  0  0  0  0  0
    2.9447    0.1076   -0.1059 F   0  0  0  0  0  0  0  0  0  0  0  0
    4.8973   -0.8545    1.1713 F   0  0  0  0  0  0  0  0  0  0  0  0
    3.8942    1.0229    2.0391 F   0  0  0  0  0  0  0  0  0  0  0  0
    2.7992   -0.9923    2.0945 F   0  0  0  0  0  0  0  0  0  0  0  0
   -3.1905    0.7392    0.4061 H   0  0  0  0  0  0  0  0  0  0  0  0
  1  7  1  0  0  0  0
  2  1  1  0  0  0  0
  2  8  1  0  0  0  0
  3  2  2  0  0  0  0
  4  5  2  0  0  0  0
  4  3  1  0  0  0  0
  5  6  1  0  0  0  0
  6 18  1  0  0  0  0
  6  1  2  0  0  0  0
  9  4  1  0  0  0  0
 10  5  1  0  0  0  0
 11 12  1  0  0  0  0
 11  3  1  0  0  0  0
 12 14  1  0  0  0  0
 13 16  1  0  0  0  0
 13 17  1  0  0  0  0
 15 13  1  0  0  0  0
M  RAD  2  11   2  12   2
M  END
