Coordinates from ORCA-job Ph-N2-BF4-B3LYPG-6-31G_dp-scan-d09-49-n400
 OpenBabel08281821203D

 18 17  0  0  0  0  0  0  0  0999 V2000
   -0.5451   -0.1762    0.4859 C   0  0  0  0  0  0  0  0  0  0  0  0
    0.4929   -0.0485   -0.4403 C   0  0  0  0  0  0  0  0  0  0  0  0
    0.7686    1.2027   -1.0146 C   0  0  0  0  0  0  0  0  0  0  0  0
   -0.0126    2.3107   -0.6666 C   0  0  0  0  0  0  0  0  0  0  0  0
   -1.0373    2.1780    0.2701 C   0  0  0  0  0  0  0  0  0  0  0  0
   -1.3071    0.9369    0.8501 C   0  0  0  0  0  0  0  0  0  0  0  0
   -0.7593   -1.1484    0.9196 H   0  0  0  0  0  0  0  0  0  0  0  0
    1.0708   -0.9184   -0.7367 H   0  0  0  0  0  0  0  0  0  0  0  0
    0.1946    3.2675   -1.1351 H   0  0  0  0  0  0  0  0  0  0  0  0
   -1.6305    3.0460    0.5422 H   0  0  0  0  0  0  0  0  0  0  0  0
    1.7544    1.3650   -2.0516 N   0  0  0  0  0  0  0  0  0  0  0  0
    2.9725    1.1998   -1.7384 N   0  0  0  0  0  0  0  0  0  0  0  0
    2.1281    0.2630    2.2148 B   0  0  0  0  0  0  0  0  0  0  0  0
    3.2160    0.9772   -0.7517 F   0  0  0  0  0  0  0  0  0  0  0  0
    2.8757   -0.6012    1.5485 F   0  0  0  0  0  0  0  0  0  0  0  0
    2.2754    1.5555    1.9964 F   0  0  0  0  0  0  0  0  0  0  0  0
    1.2950   -0.1668    3.1414 F   0  0  0  0  0  0  0  0  0  0  0  0
   -2.1116    0.8332    1.5718 H   0  0  0  0  0  0  0  0  0  0  0  0
  1  6  1  0  0  0  0
  1  7  1  0  0  0  0
  2  1  2  0  0  0  0
  3  4  2  0  0  0  0
  3  2  1  0  0  0  0
  4  5  1  0  0  0  0
  5 10  1  0  0  0  0
  5  6  2  0  0  0  0
  6 18  1  0  0  0  0
  8  2  1  0  0  0  0
  9  4  1  0  0  0  0
 11 12  2  0  0  0  0
 11  3  1  0  0  0  0
 12 14  1  0  0  0  0
 13 17  1  0  0  0  0
 15 13  1  0  0  0  0
 16 13  1  0  0  0  0
M  END
