Coordinates from ORCA-job Ph-N2-BF4-B3LYPG-6-31G_dp-scan-d09-49-n400
 OpenBabel08281821203D

 18 17  0  0  0  0  0  0  0  0999 V2000
   -1.1309    0.1303    0.8182 C   0  0  0  0  0  0  0  0  0  0  0  0
    0.2051    0.2547    0.4487 C   0  0  0  0  0  0  0  0  0  0  0  0
    0.5317    1.3597   -0.3526 C   0  0  0  0  0  0  0  0  0  0  0  0
   -0.3962    2.3231   -0.7873 C   0  0  0  0  0  0  0  0  0  0  0  0
   -1.7152    2.1677   -0.3869 C   0  0  0  0  0  0  0  0  0  0  0  0
   -2.0784    1.0744    0.4119 C   0  0  0  0  0  0  0  0  0  0  0  0
   -1.4290   -0.7093    1.4369 H   0  0  0  0  0  0  0  0  0  0  0  0
    0.9850   -0.4441    0.7464 H   0  0  0  0  0  0  0  0  0  0  0  0
   -0.0795    3.1562   -1.4050 H   0  0  0  0  0  0  0  0  0  0  0  0
   -2.4593    2.8937   -0.6958 H   0  0  0  0  0  0  0  0  0  0  0  0
    1.8410    1.5160   -0.7829 N   0  0  0  0  0  0  0  0  0  0  0  0
    2.8745    1.6473   -1.1803 N   0  0  0  0  0  0  0  0  0  0  0  0
    3.5464   -0.0640    1.2327 B   0  0  0  0  0  0  0  0  0  0  0  0
    4.2784    0.3445    0.0815 F   0  0  0  0  0  0  0  0  0  0  0  0
    4.3779   -0.3785    2.2729 F   0  0  0  0  0  0  0  0  0  0  0  0
    2.6715    1.0092    1.5691 F   0  0  0  0  0  0  0  0  0  0  0  0
    2.7306   -1.1663    0.8581 F   0  0  0  0  0  0  0  0  0  0  0  0
   -3.1132    0.9615    0.7202 H   0  0  0  0  0  0  0  0  0  0  0  0
  1  7  1  0  0  0  0
  2  8  1  0  0  0  0
  2  1  1  0  0  0  0
  3  2  2  0  0  0  0
  4  5  2  0  0  0  0
  4  3  1  0  0  0  0
  5  6  1  0  0  0  0
  6 18  1  0  0  0  0
  6  1  2  0  0  0  0
  9  4  1  0  0  0  0
 10  5  1  0  0  0  0
 11  3  1  0  0  0  0
 12 11  1  0  0  0  0
 13 16  1  0  0  0  0
 13 15  1  0  0  0  0
 14 13  1  0  0  0  0
 17 13  1  0  0  0  0
M  RAD  2  11   2  12   3
M  END
