Coordinates from ORCA-job Ph-N2-BF4-B3LYPG-6-31G_dp-scan-d09-49-n400
 OpenBabel08281821203D

 18 17  0  0  0  0  0  0  0  0999 V2000
   -1.1437    0.1411    0.6448 C   0  0  0  0  0  0  0  0  0  0  0  0
    0.1921    0.4193    0.3685 C   0  0  0  0  0  0  0  0  0  0  0  0
    0.4929    1.5728   -0.3816 C   0  0  0  0  0  0  0  0  0  0  0  0
   -0.5268    2.4264   -0.8331 C   0  0  0  0  0  0  0  0  0  0  0  0
   -1.8557    2.1218   -0.5593 C   0  0  0  0  0  0  0  0  0  0  0  0
   -2.1635    0.9778    0.1814 C   0  0  0  0  0  0  0  0  0  0  0  0
   -1.3893   -0.7415    1.2269 H   0  0  0  0  0  0  0  0  0  0  0  0
    0.9791   -0.2224    0.7333 H   0  0  0  0  0  0  0  0  0  0  0  0
   -0.2534    3.3131   -1.3945 H   0  0  0  0  0  0  0  0  0  0  0  0
   -2.6456    2.7753   -0.9145 H   0  0  0  0  0  0  0  0  0  0  0  0
    1.7906    2.0061   -0.7228 N   0  0  0  0  0  0  0  0  0  0  0  0
    2.8885    1.5561   -0.6703 N   0  0  0  0  0  0  0  0  0  0  0  0
    3.8547   -0.2637    1.6749 B   0  0  0  0  0  0  0  0  0  0  0  0
    2.9202    0.1269   -0.1206 F   0  0  0  0  0  0  0  0  0  0  0  0
    4.9178   -0.8752    1.1728 F   0  0  0  0  0  0  0  0  0  0  0  0
    3.9479    1.0024    2.0707 F   0  0  0  0  0  0  0  0  0  0  0  0
    2.8340   -1.0004    2.1249 F   0  0  0  0  0  0  0  0  0  0  0  0
   -3.1993    0.7400    0.4045 H   0  0  0  0  0  0  0  0  0  0  0  0
  1  7  1  0  0  0  0
  2  1  1  0  0  0  0
  2  8  1  0  0  0  0
  3  2  2  0  0  0  0
  4  5  2  0  0  0  0
  4  3  1  0  0  0  0
  5  6  1  0  0  0  0
  6 18  1  0  0  0  0
  6  1  2  0  0  0  0
  9  4  1  0  0  0  0
 10  5  1  0  0  0  0
 11 12  1  0  0  0  0
 11  3  1  0  0  0  0
 12 14  1  0  0  0  0
 13 16  1  0  0  0  0
 13 17  1  0  0  0  0
 15 13  1  0  0  0  0
M  RAD  2  11   2  12   2
M  END
