Coordinates from ORCA-job Ph-N2-BF4-B3LYPG-6-31G_dp-scan-d09-49-n400
 OpenBabel08281821203D

 18 17  0  0  0  0  0  0  0  0999 V2000
   -0.9860    0.2630    1.1228 C   0  0  0  0  0  0  0  0  0  0  0  0
    0.2680    0.2804    0.5184 C   0  0  0  0  0  0  0  0  0  0  0  0
    0.4548    1.2373   -0.4913 C   0  0  0  0  0  0  0  0  0  0  0  0
   -0.5241    2.1626   -0.9042 C   0  0  0  0  0  0  0  0  0  0  0  0
   -1.7529    2.1164   -0.2650 C   0  0  0  0  0  0  0  0  0  0  0  0
   -1.9810    1.1677    0.7427 C   0  0  0  0  0  0  0  0  0  0  0  0
   -1.1776   -0.4596    1.9088 H   0  0  0  0  0  0  0  0  0  0  0  0
    1.0834   -0.3882    0.8018 H   0  0  0  0  0  0  0  0  0  0  0  0
   -0.3125    2.8814   -1.6881 H   0  0  0  0  0  0  0  0  0  0  0  0
   -2.5322    2.8149   -0.5493 H   0  0  0  0  0  0  0  0  0  0  0  0
    1.6555    1.2758   -1.1838 N   0  0  0  0  0  0  0  0  0  0  0  0
    2.5235    1.3390   -1.8782 N   0  0  0  0  0  0  0  0  0  0  0  0
    3.6155    0.0435    1.1479 B   0  0  0  0  0  0  0  0  0  0  0  0
    4.3701   -0.0232    2.3032 F   0  0  0  0  0  0  0  0  0  0  0  0
    2.7497   -1.0919    1.0560 F   0  0  0  0  0  0  0  0  0  0  0  0
    2.7577    1.1997    1.1536 F   0  0  0  0  0  0  0  0  0  0  0  0
    4.3763    0.1179   -0.0255 F   0  0  0  0  0  0  0  0  0  0  0  0
   -2.9476    1.1393    1.2361 H   0  0  0  0  0  0  0  0  0  0  0  0
  1  7  1  0  0  0  0
  2  8  1  0  0  0  0
  2  1  2  0  0  0  0
  3  2  1  0  0  0  0
  4  3  2  0  0  0  0
  4  5  1  0  0  0  0
  5  6  2  0  0  0  0
  6  1  1  0  0  0  0
  6 18  1  0  0  0  0
  9  4  1  0  0  0  0
 10  5  1  0  0  0  0
 11  3  1  0  0  0  0
 12 11  1  0  0  0  0
 13 16  1  0  0  0  0
 13 14  1  0  0  0  0
 15 13  1  0  0  0  0
 17 13  1  0  0  0  0
M  RAD  2  11   2  12   3
M  END
