Coordinates from ORCA-job Ph-N2-BF4-B3LYPG-6-31G_dp-scan-d09-49-n400
 OpenBabel08281821203D

 18 17  0  0  0  0  0  0  0  0999 V2000
   -0.5357   -0.1700    0.4453 C   0  0  0  0  0  0  0  0  0  0  0  0
    0.5487    0.0214   -0.4119 C   0  0  0  0  0  0  0  0  0  0  0  0
    0.7967    1.3020   -0.9377 C   0  0  0  0  0  0  0  0  0  0  0  0
   -0.0595    2.3636   -0.6146 C   0  0  0  0  0  0  0  0  0  0  0  0
   -1.1184    2.1690    0.2694 C   0  0  0  0  0  0  0  0  0  0  0  0
   -1.3609    0.9008    0.8003 C   0  0  0  0  0  0  0  0  0  0  0  0
   -0.7318   -1.1615    0.8418 H   0  0  0  0  0  0  0  0  0  0  0  0
    1.1798   -0.8160   -0.6799 H   0  0  0  0  0  0  0  0  0  0  0  0
    0.1289    3.3341   -1.0613 H   0  0  0  0  0  0  0  0  0  0  0  0
   -1.7623    3.0030    0.5311 H   0  0  0  0  0  0  0  0  0  0  0  0
    1.8041    1.6236   -1.8976 N   0  0  0  0  0  0  0  0  0  0  0  0
    2.9487    1.1488   -1.8793 N   0  0  0  0  0  0  0  0  0  0  0  0
    2.1898    0.3128    2.2573 B   0  0  0  0  0  0  0  0  0  0  0  0
    3.2024    0.3688   -0.9483 F   0  0  0  0  0  0  0  0  0  0  0  0
    2.8856   -0.6439    1.6713 F   0  0  0  0  0  0  0  0  0  0  0  0
    2.4336    1.5773    1.9757 F   0  0  0  0  0  0  0  0  0  0  0  0
    1.2850    0.0000    3.1663 F   0  0  0  0  0  0  0  0  0  0  0  0
   -2.1941    0.7421    1.4780 H   0  0  0  0  0  0  0  0  0  0  0  0
  1  6  1  0  0  0  0
  1  7  1  0  0  0  0
  2  1  2  0  0  0  0
  3  4  2  0  0  0  0
  3  2  1  0  0  0  0
  4  5  1  0  0  0  0
  5 10  1  0  0  0  0
  5  6  2  0  0  0  0
  6 18  1  0  0  0  0
  8  2  1  0  0  0  0
  9  4  1  0  0  0  0
 11 12  2  0  0  0  0
 11  3  1  0  0  0  0
 12 14  1  0  0  0  0
 13 17  1  0  0  0  0
 15 13  1  0  0  0  0
 16 13  1  0  0  0  0
M  END
