Coordinates from ORCA-job Ph-N2-BF4-B3LYPG-6-31G_dp-scan-d09-49-n400
 OpenBabel08281821203D

 18 17  0  0  0  0  0  0  0  0999 V2000
   -0.9829    0.2709    1.0735 C   0  0  0  0  0  0  0  0  0  0  0  0
    0.3146    0.4283    0.5932 C   0  0  0  0  0  0  0  0  0  0  0  0
    0.4930    1.4093   -0.3982 C   0  0  0  0  0  0  0  0  0  0  0  0
   -0.5403    2.2125   -0.9115 C   0  0  0  0  0  0  0  0  0  0  0  0
   -1.8167    2.0207   -0.4042 C   0  0  0  0  0  0  0  0  0  0  0  0
   -2.0339    1.0521    0.5853 C   0  0  0  0  0  0  0  0  0  0  0  0
   -1.1665   -0.4712    1.8433 H   0  0  0  0  0  0  0  0  0  0  0  0
    1.1447   -0.1645    0.9742 H   0  0  0  0  0  0  0  0  0  0  0  0
   -0.3334    2.9528   -1.6765 H   0  0  0  0  0  0  0  0  0  0  0  0
   -2.6395    2.6213   -0.7756 H   0  0  0  0  0  0  0  0  0  0  0  0
    1.7611    1.5986   -0.9208 N   0  0  0  0  0  0  0  0  0  0  0  0
    2.8238    1.6303   -1.2515 N   0  0  0  0  0  0  0  0  0  0  0  0
    3.5690   -0.0880    1.0852 B   0  0  0  0  0  0  0  0  0  0  0  0
    4.8925   -0.2277    1.3930 F   0  0  0  0  0  0  0  0  0  0  0  0
    2.7214   -0.9113    1.8554 F   0  0  0  0  0  0  0  0  0  0  0  0
    3.1369    1.2575    1.2545 F   0  0  0  0  0  0  0  0  0  0  0  0
    3.3321   -0.4240   -0.2920 F   0  0  0  0  0  0  0  0  0  0  0  0
   -3.0354    0.9085    0.9788 H   0  0  0  0  0  0  0  0  0  0  0  0
  1  7  1  0  0  0  0
  2  8  1  0  0  0  0
  2  1  1  0  0  0  0
  3  2  2  0  0  0  0
  4  5  2  0  0  0  0
  4  3  1  0  0  0  0
  5  6  1  0  0  0  0
  6 18  1  0  0  0  0
  6  1  2  0  0  0  0
  9  4  1  0  0  0  0
 10  5  1  0  0  0  0
 11  3  1  0  0  0  0
 12 11  1  0  0  0  0
 13 16  1  0  0  0  0
 13 14  1  0  0  0  0
 13 15  1  0  0  0  0
 17 13  1  0  0  0  0
M  RAD  2  11   2  12   3
M  END
