Coordinates from ORCA-job Ph-N2-BF4-B3LYPG-6-31G_dp-scan-d09-49-n400
 OpenBabel08281821203D

 18 17  0  0  0  0  0  0  0  0999 V2000
   -1.1333    0.1118    0.8669 C   0  0  0  0  0  0  0  0  0  0  0  0
    0.1870    0.1661    0.4342 C   0  0  0  0  0  0  0  0  0  0  0  0
    0.5335    1.2481   -0.3872 C   0  0  0  0  0  0  0  0  0  0  0  0
   -0.3589    2.2602   -0.7828 C   0  0  0  0  0  0  0  0  0  0  0  0
   -1.6645    2.1739   -0.3211 C   0  0  0  0  0  0  0  0  0  0  0  0
   -2.0474    1.1044    0.4997 C   0  0  0  0  0  0  0  0  0  0  0  0
   -1.4453   -0.7074    1.5056 H   0  0  0  0  0  0  0  0  0  0  0  0
    0.9529   -0.5613    0.6839 H   0  0  0  0  0  0  0  0  0  0  0  0
   -0.0277    3.0764   -1.4152 H   0  0  0  0  0  0  0  0  0  0  0  0
   -2.3822    2.9382   -0.5985 H   0  0  0  0  0  0  0  0  0  0  0  0
    1.8271    1.3441   -0.8833 N   0  0  0  0  0  0  0  0  0  0  0  0
    2.7934    1.5008   -1.4099 N   0  0  0  0  0  0  0  0  0  0  0  0
    3.5339    0.0652    1.2221 B   0  0  0  0  0  0  0  0  0  0  0  0
    4.6268    0.5892    0.5362 F   0  0  0  0  0  0  0  0  0  0  0  0
    3.8735   -0.5787    2.3849 F   0  0  0  0  0  0  0  0  0  0  0  0
    2.6075    1.1286    1.4797 F   0  0  0  0  0  0  0  0  0  0  0  0
    2.8352   -0.8323    0.3338 F   0  0  0  0  0  0  0  0  0  0  0  0
   -3.0709    1.0487    0.8572 H   0  0  0  0  0  0  0  0  0  0  0  0
  1  7  1  0  0  0  0
  2  8  1  0  0  0  0
  2  1  2  0  0  0  0
  3  2  1  0  0  0  0
  4  3  2  0  0  0  0
  4  5  1  0  0  0  0
  5  6  2  0  0  0  0
  6 18  1  0  0  0  0
  6  1  1  0  0  0  0
  9  4  1  0  0  0  0
 10  5  1  0  0  0  0
 11  3  1  0  0  0  0
 12 11  1  0  0  0  0
 13 16  1  0  0  0  0
 13 15  1  0  0  0  0
 14 13  1  0  0  0  0
 17 13  1  0  0  0  0
M  RAD  2  11   2  12   3
M  END
