Coordinates from ORCA-job Ph-N2-BF4-B3LYPG-6-31G_dp-scan-d09-49-n400
 OpenBabel08281821203D

 18 17  0  0  0  0  0  0  0  0999 V2000
   -1.1124    0.1012    0.8705 C   0  0  0  0  0  0  0  0  0  0  0  0
    0.1983    0.1495    0.4099 C   0  0  0  0  0  0  0  0  0  0  0  0
    0.5344    1.2336   -0.4132 C   0  0  0  0  0  0  0  0  0  0  0  0
   -0.3584    2.2549   -0.7823 C   0  0  0  0  0  0  0  0  0  0  0  0
   -1.6544    2.1746   -0.2929 C   0  0  0  0  0  0  0  0  0  0  0  0
   -2.0272    1.1026    0.5290 C   0  0  0  0  0  0  0  0  0  0  0  0
   -1.4159   -0.7192    1.5119 H   0  0  0  0  0  0  0  0  0  0  0  0
    0.9656   -0.5825    0.6406 H   0  0  0  0  0  0  0  0  0  0  0  0
   -0.0348    3.0733   -1.4156 H   0  0  0  0  0  0  0  0  0  0  0  0
   -2.3721    2.9462   -0.5493 H   0  0  0  0  0  0  0  0  0  0  0  0
    1.8171    1.3238   -0.9374 N   0  0  0  0  0  0  0  0  0  0  0  0
    2.7673    1.4760   -1.4926 N   0  0  0  0  0  0  0  0  0  0  0  0
    3.5148    0.0900    1.2357 B   0  0  0  0  0  0  0  0  0  0  0  0
    4.6996    0.5586    0.6891 F   0  0  0  0  0  0  0  0  0  0  0  0
    3.6799   -0.5856    2.4206 F   0  0  0  0  0  0  0  0  0  0  0  0
    2.6128    1.1933    1.4093 F   0  0  0  0  0  0  0  0  0  0  0  0
    2.8691   -0.7666    0.2640 F   0  0  0  0  0  0  0  0  0  0  0  0
   -3.0429    1.0521    0.9085 H   0  0  0  0  0  0  0  0  0  0  0  0
  1  7  1  0  0  0  0
  2  8  1  0  0  0  0
  2  1  2  0  0  0  0
  3  2  1  0  0  0  0
  4  3  2  0  0  0  0
  4  5  1  0  0  0  0
  5  6  2  0  0  0  0
  6  1  1  0  0  0  0
  6 18  1  0  0  0  0
  9  4  1  0  0  0  0
 10  5  1  0  0  0  0
 11  3  1  0  0  0  0
 12 11  1  0  0  0  0
 13 16  1  0  0  0  0
 13 15  1  0  0  0  0
 14 13  1  0  0  0  0
 17 13  1  0  0  0  0
M  RAD  2  11   2  12   3
M  END
