Coordinates from ORCA-job Ph-N2-BF4-B3LYPG-6-31G_dp-scan-d09-49-n400
 OpenBabel08281821203D

 18 17  0  0  0  0  0  0  0  0999 V2000
   -1.0416    0.2855    1.1275 C   0  0  0  0  0  0  0  0  0  0  0  0
    0.2466    0.3456    0.6035 C   0  0  0  0  0  0  0  0  0  0  0  0
    0.4650    1.2966   -0.4063 C   0  0  0  0  0  0  0  0  0  0  0  0
   -0.5235    2.1671   -0.8998 C   0  0  0  0  0  0  0  0  0  0  0  0
   -1.7915    2.0782   -0.3448 C   0  0  0  0  0  0  0  0  0  0  0  0
   -2.0465    1.1400    0.6650 C   0  0  0  0  0  0  0  0  0  0  0  0
   -1.2555   -0.4334    1.9113 H   0  0  0  0  0  0  0  0  0  0  0  0
    1.0603   -0.2953    0.9433 H   0  0  0  0  0  0  0  0  0  0  0  0
   -0.2901    2.8799   -1.6831 H   0  0  0  0  0  0  0  0  0  0  0  0
   -2.5796    2.7349   -0.6962 H   0  0  0  0  0  0  0  0  0  0  0  0
    1.7182    1.3805   -0.9921 N   0  0  0  0  0  0  0  0  0  0  0  0
    2.7153    1.4196   -1.4886 N   0  0  0  0  0  0  0  0  0  0  0  0
    3.6306   -0.0083    1.0603 B   0  0  0  0  0  0  0  0  0  0  0  0
    4.7086   -0.0560    1.8988 F   0  0  0  0  0  0  0  0  0  0  0  0
    2.7407   -1.0925    1.2694 F   0  0  0  0  0  0  0  0  0  0  0  0
    2.8829    1.1912    1.2486 F   0  0  0  0  0  0  0  0  0  0  0  0
    4.0425   -0.0352   -0.3047 F   0  0  0  0  0  0  0  0  0  0  0  0
   -3.0419    1.0776    1.0939 H   0  0  0  0  0  0  0  0  0  0  0  0
  1  7  1  0  0  0  0
  2  8  1  0  0  0  0
  2  1  2  0  0  0  0
  3  2  1  0  0  0  0
  4  3  2  0  0  0  0
  4  5  1  0  0  0  0
  5  6  2  0  0  0  0
  6 18  1  0  0  0  0
  6  1  1  0  0  0  0
  9  4  1  0  0  0  0
 10  5  1  0  0  0  0
 11  3  1  0  0  0  0
 12 11  1  0  0  0  0
 13 16  1  0  0  0  0
 13 15  1  0  0  0  0
 13 14  1  0  0  0  0
 17 13  1  0  0  0  0
M  RAD  2  11   2  12   3
M  END
