Coordinates from ORCA-job Ph-N2-BF4-B3LYPG-6-31G_dp-scan-d09-49-n400
 OpenBabel08281821203D

 18 17  0  0  0  0  0  0  0  0999 V2000
   -1.0804    0.0941    0.8819 C   0  0  0  0  0  0  0  0  0  0  0  0
    0.2206    0.1486    0.3959 C   0  0  0  0  0  0  0  0  0  0  0  0
    0.5366    1.2340   -0.4333 C   0  0  0  0  0  0  0  0  0  0  0  0
   -0.3677    2.2520   -0.7832 C   0  0  0  0  0  0  0  0  0  0  0  0
   -1.6539    2.1653   -0.2694 C   0  0  0  0  0  0  0  0  0  0  0  0
   -2.0066    1.0910    0.5580 C   0  0  0  0  0  0  0  0  0  0  0  0
   -1.3671   -0.7280    1.5288 H   0  0  0  0  0  0  0  0  0  0  0  0
    0.9942   -0.5808    0.6131 H   0  0  0  0  0  0  0  0  0  0  0  0
   -0.0601    3.0726   -1.4215 H   0  0  0  0  0  0  0  0  0  0  0  0
   -2.3797    2.9341   -0.5114 H   0  0  0  0  0  0  0  0  0  0  0  0
    1.8066    1.3281   -0.9870 N   0  0  0  0  0  0  0  0  0  0  0  0
    2.7413    1.4779   -1.5678 N   0  0  0  0  0  0  0  0  0  0  0  0
    3.4942    0.1028    1.2440 B   0  0  0  0  0  0  0  0  0  0  0  0
    4.7805    0.4405    0.8740 F   0  0  0  0  0  0  0  0  0  0  0  0
    3.4148   -0.5845    2.4341 F   0  0  0  0  0  0  0  0  0  0  0  0
    2.6849    1.2885    1.3046 F   0  0  0  0  0  0  0  0  0  0  0  0
    2.8972   -0.6953    0.1891 F   0  0  0  0  0  0  0  0  0  0  0  0
   -3.0149    1.0350    0.9561 H   0  0  0  0  0  0  0  0  0  0  0  0
  1  7  1  0  0  0  0
  2  8  1  0  0  0  0
  2  1  2  0  0  0  0
  3  2  1  0  0  0  0
  4  3  2  0  0  0  0
  4  5  1  0  0  0  0
  5  6  2  0  0  0  0
  6  1  1  0  0  0  0
  6 18  1  0  0  0  0
  9  4  1  0  0  0  0
 10  5  1  0  0  0  0
 11  3  1  0  0  0  0
 12 11  1  0  0  0  0
 13 16  1  0  0  0  0
 13 15  1  0  0  0  0
 14 13  1  0  0  0  0
 17 13  1  0  0  0  0
M  RAD  2  11   2  12   3
M  END
