Coordinates from ORCA-job Ph-N2-BF4-B3LYPG-6-31G_dp-scan-d09-49-n400
 OpenBabel08281821203D

 18 17  0  0  0  0  0  0  0  0999 V2000
   -0.6180   -0.2146    0.3815 C   0  0  0  0  0  0  0  0  0  0  0  0
    0.5222    0.0167   -0.3882 C   0  0  0  0  0  0  0  0  0  0  0  0
    0.8025    1.3246   -0.8299 C   0  0  0  0  0  0  0  0  0  0  0  0
   -0.0808    2.3682   -0.5126 C   0  0  0  0  0  0  0  0  0  0  0  0
   -1.1996    2.1293    0.2808 C   0  0  0  0  0  0  0  0  0  0  0  0
   -1.4718    0.8352    0.7288 C   0  0  0  0  0  0  0  0  0  0  0  0
   -0.8350   -1.2245    0.7159 H   0  0  0  0  0  0  0  0  0  0  0  0
    1.1716   -0.8060   -0.6514 H   0  0  0  0  0  0  0  0  0  0  0  0
    0.1373    3.3596   -0.8948 H   0  0  0  0  0  0  0  0  0  0  0  0
   -1.8648    2.9481    0.5370 H   0  0  0  0  0  0  0  0  0  0  0  0
    1.8734    1.7240   -1.6800 N   0  0  0  0  0  0  0  0  0  0  0  0
    2.9835    1.1960   -1.7432 N   0  0  0  0  0  0  0  0  0  0  0  0
    2.3435    0.3977    2.1570 B   0  0  0  0  0  0  0  0  0  0  0  0
    3.1695    0.1882   -0.9417 F   0  0  0  0  0  0  0  0  0  0  0  0
    2.7707   -0.7980    1.7984 F   0  0  0  0  0  0  0  0  0  0  0  0
    2.9229    1.4809    1.6769 F   0  0  0  0  0  0  0  0  0  0  0  0
    1.3630    0.5089    3.0331 F   0  0  0  0  0  0  0  0  0  0  0  0
   -2.3494    0.6417    1.3380 H   0  0  0  0  0  0  0  0  0  0  0  0
  1  7  1  0  0  0  0
  1  6  1  0  0  0  0
  2  1  2  0  0  0  0
  3  4  2  0  0  0  0
  3  2  1  0  0  0  0
  4  5  1  0  0  0  0
  5 10  1  0  0  0  0
  5  6  2  0  0  0  0
  6 18  1  0  0  0  0
  8  2  1  0  0  0  0
  9  4  1  0  0  0  0
 11  3  1  0  0  0  0
 12 11  2  0  0  0  0
 12 14  1  0  0  0  0
 13 17  1  0  0  0  0
 15 13  1  0  0  0  0
 16 13  1  0  0  0  0
M  END
