Coordinates from ORCA-job Ph-N2-BF4-B3LYPG-6-31G_dp-scan-d09-49-n400
 OpenBabel08281821203D

 18 17  0  0  0  0  0  0  0  0999 V2000
   -1.1678    0.1700    0.6592 C   0  0  0  0  0  0  0  0  0  0  0  0
    0.1675    0.4873    0.4233 C   0  0  0  0  0  0  0  0  0  0  0  0
    0.4646    1.6256   -0.3521 C   0  0  0  0  0  0  0  0  0  0  0  0
   -0.5704    2.4270   -0.8621 C   0  0  0  0  0  0  0  0  0  0  0  0
   -1.8987    2.0824   -0.6350 C   0  0  0  0  0  0  0  0  0  0  0  0
   -2.1979    0.9516    0.1284 C   0  0  0  0  0  0  0  0  0  0  0  0
   -1.4046   -0.7018    1.2612 H   0  0  0  0  0  0  0  0  0  0  0  0
    0.9553   -0.1177    0.8441 H   0  0  0  0  0  0  0  0  0  0  0  0
   -0.3057    3.3093   -1.4347 H   0  0  0  0  0  0  0  0  0  0  0  0
   -2.6950    2.6975   -1.0410 H   0  0  0  0  0  0  0  0  0  0  0  0
    1.7545    2.1192   -0.6585 N   0  0  0  0  0  0  0  0  0  0  0  0
    2.8518    1.6300   -0.5935 N   0  0  0  0  0  0  0  0  0  0  0  0
    3.9983   -0.3688    1.7245 B   0  0  0  0  0  0  0  0  0  0  0  0
    2.8492    0.2540   -0.1318 F   0  0  0  0  0  0  0  0  0  0  0  0
    4.8865   -1.0885    1.0644 F   0  0  0  0  0  0  0  0  0  0  0  0
    4.2794    0.8713    2.0862 F   0  0  0  0  0  0  0  0  0  0  0  0
    2.9064   -0.9551    2.2058 F   0  0  0  0  0  0  0  0  0  0  0  0
   -3.2329    0.6826    0.3175 H   0  0  0  0  0  0  0  0  0  0  0  0
  1  7  1  0  0  0  0
  2  1  1  0  0  0  0
  2  8  1  0  0  0  0
  3  2  2  0  0  0  0
  4  5  2  0  0  0  0
  4  3  1  0  0  0  0
  5  6  1  0  0  0  0
  6 18  1  0  0  0  0
  6  1  2  0  0  0  0
  9  4  1  0  0  0  0
 10  5  1  0  0  0  0
 11 12  1  0  0  0  0
 11  3  1  0  0  0  0
 12 14  1  0  0  0  0
 13 16  1  0  0  0  0
 13 17  1  0  0  0  0
 15 13  1  0  0  0  0
M  RAD  2  11   2  12   2
M  END
