Coordinates from ORCA-job Ph-N2-BF4-B3LYPG-6-31G_dp-scan-d09-49-n400
 OpenBabel08281821203D

 18 17  0  0  0  0  0  0  0  0999 V2000
   -1.0650    0.3007    1.1647 C   0  0  0  0  0  0  0  0  0  0  0  0
    0.2219    0.3214    0.6349 C   0  0  0  0  0  0  0  0  0  0  0  0
    0.4591    1.2461   -0.3938 C   0  0  0  0  0  0  0  0  0  0  0  0
   -0.5106    2.1287   -0.9027 C   0  0  0  0  0  0  0  0  0  0  0  0
   -1.7777    2.0810   -0.3404 C   0  0  0  0  0  0  0  0  0  0  0  0
   -2.0509    1.1700    0.6891 C   0  0  0  0  0  0  0  0  0  0  0  0
   -1.2935   -0.3976    1.9628 H   0  0  0  0  0  0  0  0  0  0  0  0
    1.0278   -0.3285    0.9709 H   0  0  0  0  0  0  0  0  0  0  0  0
   -0.2642    2.8198   -1.7012 H   0  0  0  0  0  0  0  0  0  0  0  0
   -2.5515    2.7492   -0.7022 H   0  0  0  0  0  0  0  0  0  0  0  0
    1.7118    1.2917   -0.9873 N   0  0  0  0  0  0  0  0  0  0  0  0
    2.6868    1.3342   -1.5261 N   0  0  0  0  0  0  0  0  0  0  0  0
    3.6471    0.0346    1.0299 B   0  0  0  0  0  0  0  0  0  0  0  0
    4.5949   -0.1234    2.0028 F   0  0  0  0  0  0  0  0  0  0  0  0
    2.7728   -1.0833    0.9537 F   0  0  0  0  0  0  0  0  0  0  0  0
    2.8349    1.1801    1.2778 F   0  0  0  0  0  0  0  0  0  0  0  0
    4.2425    0.2109   -0.2497 F   0  0  0  0  0  0  0  0  0  0  0  0
   -3.0457    1.1405    1.1228 H   0  0  0  0  0  0  0  0  0  0  0  0
  1  7  1  0  0  0  0
  2  8  1  0  0  0  0
  2  1  2  0  0  0  0
  3  2  1  0  0  0  0
  4  3  2  0  0  0  0
  4  5  1  0  0  0  0
  5  6  2  0  0  0  0
  6 18  1  0  0  0  0
  6  1  1  0  0  0  0
  9  4  1  0  0  0  0
 10  5  1  0  0  0  0
 11  3  1  0  0  0  0
 12 11  1  0  0  0  0
 13 16  1  0  0  0  0
 13 14  1  0  0  0  0
 15 13  1  0  0  0  0
 17 13  1  0  0  0  0
M  RAD  2  11   2  12   3
M  END
