Coordinates from ORCA-job Ph-N2-BF4-B3LYPG-6-31G_dp-scan-d09-49-n400
 OpenBabel08281821203D

 18 17  0  0  0  0  0  0  0  0999 V2000
   -1.1239    0.1266    0.8208 C   0  0  0  0  0  0  0  0  0  0  0  0
    0.2098    0.2496    0.4426 C   0  0  0  0  0  0  0  0  0  0  0  0
    0.5305    1.3566   -0.3578 C   0  0  0  0  0  0  0  0  0  0  0  0
   -0.3980    2.3241   -0.7834 C   0  0  0  0  0  0  0  0  0  0  0  0
   -1.7140    2.1689   -0.3740 C   0  0  0  0  0  0  0  0  0  0  0  0
   -2.0727    1.0735    0.4242 C   0  0  0  0  0  0  0  0  0  0  0  0
   -1.4191   -0.7141    1.4395 H   0  0  0  0  0  0  0  0  0  0  0  0
    0.9931   -0.4500    0.7318 H   0  0  0  0  0  0  0  0  0  0  0  0
   -0.0844    3.1587   -1.4007 H   0  0  0  0  0  0  0  0  0  0  0  0
   -2.4591    2.8970   -0.6754 H   0  0  0  0  0  0  0  0  0  0  0  0
    1.8347    1.5131   -0.8039 N   0  0  0  0  0  0  0  0  0  0  0  0
    2.8411    1.6745   -1.2520 N   0  0  0  0  0  0  0  0  0  0  0  0
    3.5523   -0.0652    1.2360 B   0  0  0  0  0  0  0  0  0  0  0  0
    4.3644    0.3145    0.1446 F   0  0  0  0  0  0  0  0  0  0  0  0
    4.2908   -0.3871    2.3443 F   0  0  0  0  0  0  0  0  0  0  0  0
    2.6686    1.0279    1.5086 F   0  0  0  0  0  0  0  0  0  0  0  0
    2.7318   -1.1542    0.8211 F   0  0  0  0  0  0  0  0  0  0  0  0
   -3.1054    0.9615    0.7397 H   0  0  0  0  0  0  0  0  0  0  0  0
  1  7  1  0  0  0  0
  2  8  1  0  0  0  0
  2  1  1  0  0  0  0
  3  2  2  0  0  0  0
  4  5  2  0  0  0  0
  4  3  1  0  0  0  0
  5  6  1  0  0  0  0
  6 18  1  0  0  0  0
  6  1  2  0  0  0  0
  9  4  1  0  0  0  0
 10  5  1  0  0  0  0
 11  3  1  0  0  0  0
 12 11  1  0  0  0  0
 13 16  1  0  0  0  0
 13 15  1  0  0  0  0
 14 13  1  0  0  0  0
 17 13  1  0  0  0  0
M  RAD  2  11   2  12   3
M  END
