Coordinates from ORCA-job Ph-N2-BF4-B3LYPG-6-31G_dp-scan-d09-49-n400
 OpenBabel08281821203D

 18 17  0  0  0  0  0  0  0  0999 V2000
   -1.0077    0.2839    1.0994 C   0  0  0  0  0  0  0  0  0  0  0  0
    0.2871    0.4032    0.6013 C   0  0  0  0  0  0  0  0  0  0  0  0
    0.4803    1.3694   -0.4010 C   0  0  0  0  0  0  0  0  0  0  0  0
   -0.5385    2.1943   -0.9105 C   0  0  0  0  0  0  0  0  0  0  0  0
   -1.8124    2.0429   -0.3838 C   0  0  0  0  0  0  0  0  0  0  0  0
   -2.0429    1.0901    0.6181 C   0  0  0  0  0  0  0  0  0  0  0  0
   -1.2020   -0.4459    1.8782 H   0  0  0  0  0  0  0  0  0  0  0  0
    1.1119   -0.2055    0.9728 H   0  0  0  0  0  0  0  0  0  0  0  0
   -0.3223    2.9206   -1.6863 H   0  0  0  0  0  0  0  0  0  0  0  0
   -2.6235    2.6624   -0.7501 H   0  0  0  0  0  0  0  0  0  0  0  0
    1.7431    1.5203   -0.9493 N   0  0  0  0  0  0  0  0  0  0  0  0
    2.7869    1.5672   -1.3357 N   0  0  0  0  0  0  0  0  0  0  0  0
    3.5993   -0.0689    1.0712 B   0  0  0  0  0  0  0  0  0  0  0  0
    4.8509   -0.1236    1.6144 F   0  0  0  0  0  0  0  0  0  0  0  0
    2.7135   -1.0237    1.6233 F   0  0  0  0  0  0  0  0  0  0  0  0
    3.0103    1.2144    1.2591 F   0  0  0  0  0  0  0  0  0  0  0  0
    3.6492   -0.3036   -0.3416 F   0  0  0  0  0  0  0  0  0  0  0  0
   -3.0426    0.9786    1.0265 H   0  0  0  0  0  0  0  0  0  0  0  0
  1  7  1  0  0  0  0
  2  8  1  0  0  0  0
  2  1  2  0  0  0  0
  3  2  1  0  0  0  0
  4  3  2  0  0  0  0
  4  5  1  0  0  0  0
  5  6  2  0  0  0  0
  6 18  1  0  0  0  0
  6  1  1  0  0  0  0
  9  4  1  0  0  0  0
 10  5  1  0  0  0  0
 11  3  1  0  0  0  0
 12 11  1  0  0  0  0
 13 16  1  0  0  0  0
 13 14  1  0  0  0  0
 13 15  1  0  0  0  0
 17 13  1  0  0  0  0
M  RAD  2  11   2  12   3
M  END
