Coordinates from ORCA-job Ph-N2-BF4-B3LYPG-6-31G_dp-scan-d09-49-n400
 OpenBabel08281821203D

 18 17  0  0  0  0  0  0  0  0999 V2000
   -0.5462   -0.1768    0.4881 C   0  0  0  0  0  0  0  0  0  0  0  0
    0.4911   -0.0495   -0.4392 C   0  0  0  0  0  0  0  0  0  0  0  0
    0.7696    1.2010   -1.0153 C   0  0  0  0  0  0  0  0  0  0  0  0
   -0.0113    2.3092   -0.6643 C   0  0  0  0  0  0  0  0  0  0  0  0
   -1.0374    2.1772    0.2707 C   0  0  0  0  0  0  0  0  0  0  0  0
   -1.3081    0.9365    0.8517 C   0  0  0  0  0  0  0  0  0  0  0  0
   -0.7602   -1.1487    0.9225 H   0  0  0  0  0  0  0  0  0  0  0  0
    1.0668   -0.9210   -0.7364 H   0  0  0  0  0  0  0  0  0  0  0  0
    0.1974    3.2663   -1.1319 H   0  0  0  0  0  0  0  0  0  0  0  0
   -1.6305    3.0455    0.5423 H   0  0  0  0  0  0  0  0  0  0  0  0
    1.7596    1.3622   -2.0484 N   0  0  0  0  0  0  0  0  0  0  0  0
    2.9812    1.1966   -1.7139 N   0  0  0  0  0  0  0  0  0  0  0  0
    2.1258    0.2649    2.2077 B   0  0  0  0  0  0  0  0  0  0  0  0
    3.2118    0.9845   -0.7640 F   0  0  0  0  0  0  0  0  0  0  0  0
    2.8748   -0.5972    1.5393 F   0  0  0  0  0  0  0  0  0  0  0  0
    2.2737    1.5575    1.9885 F   0  0  0  0  0  0  0  0  0  0  0  0
    1.2952   -0.1658    3.1352 F   0  0  0  0  0  0  0  0  0  0  0  0
   -2.1127    0.8335    1.5733 H   0  0  0  0  0  0  0  0  0  0  0  0
  1  6  1  0  0  0  0
  1  7  1  0  0  0  0
  2  1  2  0  0  0  0
  3  4  2  0  0  0  0
  3  2  1  0  0  0  0
  4  5  1  0  0  0  0
  5 10  1  0  0  0  0
  5  6  2  0  0  0  0
  6 18  1  0  0  0  0
  8  2  1  0  0  0  0
  9  4  1  0  0  0  0
 11 12  2  0  0  0  0
 11  3  1  0  0  0  0
 12 14  1  0  0  0  0
 13 17  1  0  0  0  0
 15 13  1  0  0  0  0
 16 13  1  0  0  0  0
M  END
