Coordinates from ORCA-job Ph-N2-BF4-B3LYPG-6-31G_dp-scan-d09-49-n400
 OpenBabel08281821203D

 18 17  0  0  0  0  0  0  0  0999 V2000
   -1.0251    0.2944    1.1601 C   0  0  0  0  0  0  0  0  0  0  0  0
    0.2455    0.3038    0.5915 C   0  0  0  0  0  0  0  0  0  0  0  0
    0.4577    1.2323   -0.4393 C   0  0  0  0  0  0  0  0  0  0  0  0
   -0.5165    2.1321   -0.9120 C   0  0  0  0  0  0  0  0  0  0  0  0
   -1.7644    2.0948   -0.3094 C   0  0  0  0  0  0  0  0  0  0  0  0
   -2.0150    1.1783    0.7219 C   0  0  0  0  0  0  0  0  0  0  0  0
   -1.2356   -0.4053    1.9617 H   0  0  0  0  0  0  0  0  0  0  0  0
    1.0584   -0.3507    0.9044 H   0  0  0  0  0  0  0  0  0  0  0  0
   -0.2876    2.8261   -1.7131 H   0  0  0  0  0  0  0  0  0  0  0  0
   -2.5411    2.7753   -0.6408 H   0  0  0  0  0  0  0  0  0  0  0  0
    1.6846    1.2644   -1.0854 N   0  0  0  0  0  0  0  0  0  0  0  0
    2.6010    1.3150   -1.7158 N   0  0  0  0  0  0  0  0  0  0  0  0
    3.6335    0.0440    1.0837 B   0  0  0  0  0  0  0  0  0  0  0  0
    4.4566   -0.1493    2.1710 F   0  0  0  0  0  0  0  0  0  0  0  0
    2.7751   -1.0810    0.8883 F   0  0  0  0  0  0  0  0  0  0  0  0
    2.7735    1.1746    1.2701 F   0  0  0  0  0  0  0  0  0  0  0  0
    4.3356    0.2695   -0.1182 F   0  0  0  0  0  0  0  0  0  0  0  0
   -2.9957    1.1576    1.1872 H   0  0  0  0  0  0  0  0  0  0  0  0
  1  7  1  0  0  0  0
  2  8  1  0  0  0  0
  2  1  2  0  0  0  0
  3  2  1  0  0  0  0
  4  3  2  0  0  0  0
  4  5  1  0  0  0  0
  5  6  2  0  0  0  0
  6  1  1  0  0  0  0
  6 18  1  0  0  0  0
  9  4  1  0  0  0  0
 10  5  1  0  0  0  0
 11  3  1  0  0  0  0
 12 11  1  0  0  0  0
 13 16  1  0  0  0  0
 13 14  1  0  0  0  0
 15 13  1  0  0  0  0
 17 13  1  0  0  0  0
M  RAD  2  11   2  12   3
M  END
