Coordinates from ORCA-job Ph-N2-BF4-B3LYPG-6-31G_dp-scan-d09-49-n400
 OpenBabel08281821203D

 18 17  0  0  0  0  0  0  0  0999 V2000
   -1.1129    0.1021    0.8701 C   0  0  0  0  0  0  0  0  0  0  0  0
    0.1982    0.1509    0.4107 C   0  0  0  0  0  0  0  0  0  0  0  0
    0.5344    1.2349   -0.4124 C   0  0  0  0  0  0  0  0  0  0  0  0
   -0.3587    2.2556   -0.7828 C   0  0  0  0  0  0  0  0  0  0  0  0
   -1.6551    2.1748   -0.2945 C   0  0  0  0  0  0  0  0  0  0  0  0
   -2.0280    1.1030    0.5276 C   0  0  0  0  0  0  0  0  0  0  0  0
   -1.4166   -0.7181    1.5116 H   0  0  0  0  0  0  0  0  0  0  0  0
    0.9654   -0.5808    0.6427 H   0  0  0  0  0  0  0  0  0  0  0  0
   -0.0350    3.0738   -1.4163 H   0  0  0  0  0  0  0  0  0  0  0  0
   -2.3730    2.9460   -0.5519 H   0  0  0  0  0  0  0  0  0  0  0  0
    1.8173    1.3256   -0.9355 N   0  0  0  0  0  0  0  0  0  0  0  0
    2.7675    1.4792   -1.4904 N   0  0  0  0  0  0  0  0  0  0  0  0
    3.5157    0.0874    1.2359 B   0  0  0  0  0  0  0  0  0  0  0  0
    4.6952    0.5616    0.6813 F   0  0  0  0  0  0  0  0  0  0  0  0
    3.6934   -0.5854    2.4203 F   0  0  0  0  0  0  0  0  0  0  0  0
    2.6090    1.1863    1.4138 F   0  0  0  0  0  0  0  0  0  0  0  0
    2.8675   -0.7729    0.2694 F   0  0  0  0  0  0  0  0  0  0  0  0
   -3.0440    1.0521    0.9063 H   0  0  0  0  0  0  0  0  0  0  0  0
  1  7  1  0  0  0  0
  2  8  1  0  0  0  0
  2  1  2  0  0  0  0
  3  2  1  0  0  0  0
  4  3  2  0  0  0  0
  4  5  1  0  0  0  0
  5  6  2  0  0  0  0
  6  1  1  0  0  0  0
  6 18  1  0  0  0  0
  9  4  1  0  0  0  0
 10  5  1  0  0  0  0
 11  3  1  0  0  0  0
 12 11  1  0  0  0  0
 13 16  1  0  0  0  0
 13 15  1  0  0  0  0
 14 13  1  0  0  0  0
 17 13  1  0  0  0  0
M  RAD  2  11   2  12   3
M  END
