Coordinates from ORCA-job Ph-N2-BF4-B3LYPG-6-31G_dp-scan-d09-49-n400
 OpenBabel08281821203D

 18 17  0  0  0  0  0  0  0  0999 V2000
   -0.9992    0.2813    1.0920 C   0  0  0  0  0  0  0  0  0  0  0  0
    0.2967    0.4125    0.5997 C   0  0  0  0  0  0  0  0  0  0  0  0
    0.4854    1.3826   -0.4001 C   0  0  0  0  0  0  0  0  0  0  0  0
   -0.5383    2.1996   -0.9118 C   0  0  0  0  0  0  0  0  0  0  0  0
   -1.8134    2.0354   -0.3916 C   0  0  0  0  0  0  0  0  0  0  0  0
   -2.0397    1.0789    0.6076 C   0  0  0  0  0  0  0  0  0  0  0  0
   -1.1900   -0.4513    1.8690 H   0  0  0  0  0  0  0  0  0  0  0  0
    1.1226   -0.1904    0.9768 H   0  0  0  0  0  0  0  0  0  0  0  0
   -0.3250    2.9296   -1.6849 H   0  0  0  0  0  0  0  0  0  0  0  0
   -2.6284    2.6482   -0.7605 H   0  0  0  0  0  0  0  0  0  0  0  0
    1.7506    1.5480   -0.9385 N   0  0  0  0  0  0  0  0  0  0  0  0
    2.8022    1.5874   -1.3037 N   0  0  0  0  0  0  0  0  0  0  0  0
    3.5871   -0.0767    1.0745 B   0  0  0  0  0  0  0  0  0  0  0  0
    4.8694   -0.1431    1.5387 F   0  0  0  0  0  0  0  0  0  0  0  0
    2.7185   -1.0000    1.6975 F   0  0  0  0  0  0  0  0  0  0  0  0
    3.0363    1.2228    1.2638 F   0  0  0  0  0  0  0  0  0  0  0  0
    3.5457   -0.3466   -0.3344 F   0  0  0  0  0  0  0  0  0  0  0  0
   -3.0400    0.9578    1.0117 H   0  0  0  0  0  0  0  0  0  0  0  0
  1  7  1  0  0  0  0
  2  8  1  0  0  0  0
  2  1  2  0  0  0  0
  3  2  1  0  0  0  0
  4  3  2  0  0  0  0
  4  5  1  0  0  0  0
  5  6  2  0  0  0  0
  6 18  1  0  0  0  0
  6  1  1  0  0  0  0
  9  4  1  0  0  0  0
 10  5  1  0  0  0  0
 11  3  1  0  0  0  0
 12 11  1  0  0  0  0
 13 16  1  0  0  0  0
 13 14  1  0  0  0  0
 13 15  1  0  0  0  0
 17 13  1  0  0  0  0
M  RAD  2  11   2  12   3
M  END
