Coordinates from ORCA-job Ph-N2-BF4-B3LYPG-6-31G_dp-scan-d09-49-n400
 OpenBabel08281821203D

 18 17  0  0  0  0  0  0  0  0999 V2000
   -0.9862    0.2037    1.0338 C   0  0  0  0  0  0  0  0  0  0  0  0
    0.3193    0.3259    0.5682 C   0  0  0  0  0  0  0  0  0  0  0  0
    0.5512    1.3362   -0.3795 C   0  0  0  0  0  0  0  0  0  0  0  0
   -0.4461    2.2028   -0.8660 C   0  0  0  0  0  0  0  0  0  0  0  0
   -1.7334    2.0452   -0.3748 C   0  0  0  0  0  0  0  0  0  0  0  0
   -2.0000    1.0483    0.5728 C   0  0  0  0  0  0  0  0  0  0  0  0
   -1.2064   -0.5604    1.7715 H   0  0  0  0  0  0  0  0  0  0  0  0
    1.1227   -0.3137    0.9147 H   0  0  0  0  0  0  0  0  0  0  0  0
   -0.2039    2.9667   -1.5967 H   0  0  0  0  0  0  0  0  0  0  0  0
   -2.5254    2.6966   -0.7271 H   0  0  0  0  0  0  0  0  0  0  0  0
    1.8180    1.5294   -0.9119 N   0  0  0  0  0  0  0  0  0  0  0  0
    2.7809    1.7479   -1.4182 N   0  0  0  0  0  0  0  0  0  0  0  0
    3.4726   -0.0293    1.1203 B   0  0  0  0  0  0  0  0  0  0  0  0
    4.8413   -0.0403    1.1504 F   0  0  0  0  0  0  0  0  0  0  0  0
    2.8625   -0.8166    2.1008 F   0  0  0  0  0  0  0  0  0  0  0  0
    2.9790    1.3078    1.2471 F   0  0  0  0  0  0  0  0  0  0  0  0
    3.0037   -0.5069   -0.1548 F   0  0  0  0  0  0  0  0  0  0  0  0
   -3.0094    0.9327    0.9552 H   0  0  0  0  0  0  0  0  0  0  0  0
  1  7  1  0  0  0  0
  2  8  1  0  0  0  0
  2  1  2  0  0  0  0
  3  2  1  0  0  0  0
  4  3  2  0  0  0  0
  4  5  1  0  0  0  0
  5  6  2  0  0  0  0
  6 18  1  0  0  0  0
  6  1  1  0  0  0  0
  9  4  1  0  0  0  0
 10  5  1  0  0  0  0
 11  3  1  0  0  0  0
 12 11  1  0  0  0  0
 13 14  1  0  0  0  0
 13 16  1  0  0  0  0
 13 15  1  0  0  0  0
 17 13  1  0  0  0  0
M  RAD  2  11   2  12   3
M  END
