Coordinates from ORCA-job Ph-N2-BF4-B3LYPG-6-31G_dp-scan-d09-49-n400
 OpenBabel08281821203D

 18 17  0  0  0  0  0  0  0  0999 V2000
   -1.0205    0.2867    1.1628 C   0  0  0  0  0  0  0  0  0  0  0  0
    0.2384    0.2667    0.5698 C   0  0  0  0  0  0  0  0  0  0  0  0
    0.4545    1.1940   -0.4612 C   0  0  0  0  0  0  0  0  0  0  0  0
   -0.5065    2.1171   -0.9154 C   0  0  0  0  0  0  0  0  0  0  0  0
   -1.7437    2.1076   -0.2900 C   0  0  0  0  0  0  0  0  0  0  0  0
   -1.9963    1.1963    0.7455 C   0  0  0  0  0  0  0  0  0  0  0  0
   -1.2328   -0.4089    1.9676 H   0  0  0  0  0  0  0  0  0  0  0  0
    1.0421   -0.4077    0.8614 H   0  0  0  0  0  0  0  0  0  0  0  0
   -0.2753    2.8086   -1.7179 H   0  0  0  0  0  0  0  0  0  0  0  0
   -2.5100    2.8071   -0.6057 H   0  0  0  0  0  0  0  0  0  0  0  0
    1.6759    1.2099   -1.1173 N   0  0  0  0  0  0  0  0  0  0  0  0
    2.5889    1.2653   -1.7523 N   0  0  0  0  0  0  0  0  0  0  0  0
    3.6176    0.0805    1.0920 B   0  0  0  0  0  0  0  0  0  0  0  0
    4.3762   -0.1473    2.2200 F   0  0  0  0  0  0  0  0  0  0  0  0
    2.8006   -1.0546    0.7895 F   0  0  0  0  0  0  0  0  0  0  0  0
    2.7167    1.1781    1.2792 F   0  0  0  0  0  0  0  0  0  0  0  0
    4.3822    0.3771   -0.0526 F   0  0  0  0  0  0  0  0  0  0  0  0
   -2.9676    1.1998    1.2305 H   0  0  0  0  0  0  0  0  0  0  0  0
  1  7  1  0  0  0  0
  2  8  1  0  0  0  0
  2  1  2  0  0  0  0
  3  2  1  0  0  0  0
  4  3  2  0  0  0  0
  4  5  1  0  0  0  0
  5  6  2  0  0  0  0
  6  1  1  0  0  0  0
  6 18  1  0  0  0  0
  9  4  1  0  0  0  0
 10  5  1  0  0  0  0
 11  3  1  0  0  0  0
 12 11  1  0  0  0  0
 13 16  1  0  0  0  0
 13 14  1  0  0  0  0
 15 13  1  0  0  0  0
 17 13  1  0  0  0  0
M  RAD  2  11   2  12   3
M  END
