Coordinates from ORCA-job Ph-N2-BF4-B3LYPG-6-31G_dp-scan-d09-49-n400
 OpenBabel08281821203D

 18 17  0  0  0  0  0  0  0  0999 V2000
   -1.0006    0.2822    1.0936 C   0  0  0  0  0  0  0  0  0  0  0  0
    0.2952    0.4115    0.6004 C   0  0  0  0  0  0  0  0  0  0  0  0
    0.4845    1.3807   -0.4001 C   0  0  0  0  0  0  0  0  0  0  0  0
   -0.5386    2.1985   -0.9119 C   0  0  0  0  0  0  0  0  0  0  0  0
   -1.8135    2.0363   -0.3907 C   0  0  0  0  0  0  0  0  0  0  0  0
   -2.0404    1.0808    0.6093 C   0  0  0  0  0  0  0  0  0  0  0  0
   -1.1919   -0.4497    1.8712 H   0  0  0  0  0  0  0  0  0  0  0  0
    1.1209   -0.1921    0.9769 H   0  0  0  0  0  0  0  0  0  0  0  0
   -0.3249    2.9277   -1.6856 H   0  0  0  0  0  0  0  0  0  0  0  0
   -2.6279    2.6499   -0.7596 H   0  0  0  0  0  0  0  0  0  0  0  0
    1.7494    1.5440   -0.9399 N   0  0  0  0  0  0  0  0  0  0  0  0
    2.7999    1.5848   -1.3083 N   0  0  0  0  0  0  0  0  0  0  0  0
    3.5894   -0.0760    1.0737 B   0  0  0  0  0  0  0  0  0  0  0  0
    4.8668   -0.1402    1.5514 F   0  0  0  0  0  0  0  0  0  0  0  0
    2.7176   -1.0052    1.6841 F   0  0  0  0  0  0  0  0  0  0  0  0
    3.0319    1.2207    1.2636 F   0  0  0  0  0  0  0  0  0  0  0  0
    3.5635   -0.3393   -0.3365 F   0  0  0  0  0  0  0  0  0  0  0  0
   -3.0406    0.9613    1.0141 H   0  0  0  0  0  0  0  0  0  0  0  0
  1  7  1  0  0  0  0
  2  8  1  0  0  0  0
  2  1  2  0  0  0  0
  3  2  1  0  0  0  0
  4  3  2  0  0  0  0
  4  5  1  0  0  0  0
  5  6  2  0  0  0  0
  6 18  1  0  0  0  0
  6  1  1  0  0  0  0
  9  4  1  0  0  0  0
 10  5  1  0  0  0  0
 11  3  1  0  0  0  0
 12 11  1  0  0  0  0
 13 16  1  0  0  0  0
 13 14  1  0  0  0  0
 13 15  1  0  0  0  0
 17 13  1  0  0  0  0
M  RAD  2  11   2  12   3
M  END
