Coordinates from ORCA-job Ph-N2-BF4-B3LYPG-6-31G_dp-scan-d09-49-n400
 OpenBabel08281821203D

 18 17  0  0  0  0  0  0  0  0999 V2000
   -1.1169    0.1233    0.8220 C   0  0  0  0  0  0  0  0  0  0  0  0
    0.2143    0.2462    0.4351 C   0  0  0  0  0  0  0  0  0  0  0  0
    0.5292    1.3550   -0.3645 C   0  0  0  0  0  0  0  0  0  0  0  0
   -0.4007    2.3258   -0.7804 C   0  0  0  0  0  0  0  0  0  0  0  0
   -1.7137    2.1703   -0.3619 C   0  0  0  0  0  0  0  0  0  0  0  0
   -2.0676    1.0724    0.4352 C   0  0  0  0  0  0  0  0  0  0  0  0
   -1.4085   -0.7187    1.4406 H   0  0  0  0  0  0  0  0  0  0  0  0
    1.0009   -0.4532    0.7168 H   0  0  0  0  0  0  0  0  0  0  0  0
   -0.0907    3.1624   -1.3968 H   0  0  0  0  0  0  0  0  0  0  0  0
   -2.4601    2.9003   -0.6552 H   0  0  0  0  0  0  0  0  0  0  0  0
    1.8290    1.5124   -0.8245 N   0  0  0  0  0  0  0  0  0  0  0  0
    2.8146    1.6885   -1.3100 N   0  0  0  0  0  0  0  0  0  0  0  0
    3.5562   -0.0663    1.2410 B   0  0  0  0  0  0  0  0  0  0  0  0
    4.4357    0.2873    0.2051 F   0  0  0  0  0  0  0  0  0  0  0  0
    4.2108   -0.3912    2.4009 F   0  0  0  0  0  0  0  0  0  0  0  0
    2.6702    1.0446    1.4556 F   0  0  0  0  0  0  0  0  0  0  0  0
    2.7358   -1.1437    0.7892 F   0  0  0  0  0  0  0  0  0  0  0  0
   -3.0981    0.9606    0.7579 H   0  0  0  0  0  0  0  0  0  0  0  0
  1  7  1  0  0  0  0
  2  8  1  0  0  0  0
  2  1  2  0  0  0  0
  3  2  1  0  0  0  0
  4  3  2  0  0  0  0
  4  5  1  0  0  0  0
  5  6  2  0  0  0  0
  6 18  1  0  0  0  0
  6  1  1  0  0  0  0
  9  4  1  0  0  0  0
 10  5  1  0  0  0  0
 11  3  1  0  0  0  0
 12 11  1  0  0  0  0
 13 16  1  0  0  0  0
 13 15  1  0  0  0  0
 14 13  1  0  0  0  0
 17 13  1  0  0  0  0
M  RAD  2  11   2  12   3
M  END
