Coordinates from ORCA-job Ph-N2-BF4-B3LYPG-6-31G_dp-scan-d09-49-n400
 OpenBabel08281821203D

 18 17  0  0  0  0  0  0  0  0999 V2000
   -0.9990    0.1856    1.0130 C   0  0  0  0  0  0  0  0  0  0  0  0
    0.3051    0.2922    0.5408 C   0  0  0  0  0  0  0  0  0  0  0  0
    0.5517    1.3141   -0.3898 C   0  0  0  0  0  0  0  0  0  0  0  0
   -0.4310    2.2081   -0.8551 C   0  0  0  0  0  0  0  0  0  0  0  0
   -1.7182    2.0661   -0.3585 C   0  0  0  0  0  0  0  0  0  0  0  0
   -1.9985    1.0585    0.5736 C   0  0  0  0  0  0  0  0  0  0  0  0
   -1.2297   -0.5870    1.7386 H   0  0  0  0  0  0  0  0  0  0  0  0
    1.1028   -0.3674    0.8599 H   0  0  0  0  0  0  0  0  0  0  0  0
   -0.1784    2.9805   -1.5732 H   0  0  0  0  0  0  0  0  0  0  0  0
   -2.4997    2.7386   -0.6945 H   0  0  0  0  0  0  0  0  0  0  0  0
    1.8201    1.4927   -0.9251 N   0  0  0  0  0  0  0  0  0  0  0  0
    2.7741    1.7082   -1.4494 N   0  0  0  0  0  0  0  0  0  0  0  0
    3.4705   -0.0057    1.1435 B   0  0  0  0  0  0  0  0  0  0  0  0
    4.8394    0.0559    1.1050 F   0  0  0  0  0  0  0  0  0  0  0  0
    2.9503   -0.8012    2.1607 F   0  0  0  0  0  0  0  0  0  0  0  0
    2.9167    1.3101    1.2621 F   0  0  0  0  0  0  0  0  0  0  0  0
    2.9720   -0.5301   -0.1064 F   0  0  0  0  0  0  0  0  0  0  0  0
   -3.0075    0.9567    0.9609 H   0  0  0  0  0  0  0  0  0  0  0  0
  1  7  1  0  0  0  0
  2  8  1  0  0  0  0
  2  1  2  0  0  0  0
  3  2  1  0  0  0  0
  4  3  2  0  0  0  0
  4  5  1  0  0  0  0
  5  6  2  0  0  0  0
  6 18  1  0  0  0  0
  6  1  1  0  0  0  0
  9  4  1  0  0  0  0
 10  5  1  0  0  0  0
 11  3  1  0  0  0  0
 12 11  1  0  0  0  0
 13 16  1  0  0  0  0
 13 15  1  0  0  0  0
 14 13  1  0  0  0  0
 17 13  1  0  0  0  0
M  RAD  2  11   2  12   3
M  END
