Coordinates from ORCA-job Ph-N2-BF4-B3LYPG-6-31G_dp-scan-d09-49-n400
 OpenBabel08281821203D

 18 17  0  0  0  0  0  0  0  0999 V2000
   -0.9824    0.2708    1.0716 C   0  0  0  0  0  0  0  0  0  0  0  0
    0.3157    0.4313    0.5942 C   0  0  0  0  0  0  0  0  0  0  0  0
    0.4944    1.4130   -0.3967 C   0  0  0  0  0  0  0  0  0  0  0  0
   -0.5396    2.2137   -0.9121 C   0  0  0  0  0  0  0  0  0  0  0  0
   -1.8169    2.0186   -0.4080 C   0  0  0  0  0  0  0  0  0  0  0  0
   -2.0342    1.0495    0.5808 C   0  0  0  0  0  0  0  0  0  0  0  0
   -1.1660   -0.4718    1.8408 H   0  0  0  0  0  0  0  0  0  0  0  0
    1.1458   -0.1598    0.9764 H   0  0  0  0  0  0  0  0  0  0  0  0
   -0.3325    2.9547   -1.6764 H   0  0  0  0  0  0  0  0  0  0  0  0
   -2.6402    2.6171   -0.7815 H   0  0  0  0  0  0  0  0  0  0  0  0
    1.7644    1.6062   -0.9139 N   0  0  0  0  0  0  0  0  0  0  0  0
    2.8311    1.6297   -1.2326 N   0  0  0  0  0  0  0  0  0  0  0  0
    3.5662   -0.0900    1.0851 B   0  0  0  0  0  0  0  0  0  0  0  0
    4.8976   -0.2276    1.3557 F   0  0  0  0  0  0  0  0  0  0  0  0
    2.7366   -0.9074    1.8779 F   0  0  0  0  0  0  0  0  0  0  0  0
    3.1416    1.2576    1.2577 F   0  0  0  0  0  0  0  0  0  0  0  0
    3.2949   -0.4333   -0.2852 F   0  0  0  0  0  0  0  0  0  0  0  0
   -3.0362    0.9036    0.9721 H   0  0  0  0  0  0  0  0  0  0  0  0
  1  7  1  0  0  0  0
  2  8  1  0  0  0  0
  2  1  1  0  0  0  0
  3  2  2  0  0  0  0
  4  5  2  0  0  0  0
  4  3  1  0  0  0  0
  5  6  1  0  0  0  0
  6 18  1  0  0  0  0
  6  1  2  0  0  0  0
  9  4  1  0  0  0  0
 10  5  1  0  0  0  0
 11  3  1  0  0  0  0
 12 11  1  0  0  0  0
 13 16  1  0  0  0  0
 13 14  1  0  0  0  0
 13 15  1  0  0  0  0
 17 13  1  0  0  0  0
M  RAD  2  11   2  12   3
M  END
