Coordinates from ORCA-job Ph-N2-BF4-B3LYPG-6-31G_dp-scan-d09-49-n400
 OpenBabel08281821203D

 18 17  0  0  0  0  0  0  0  0999 V2000
   -1.0508    0.2995    1.1639 C   0  0  0  0  0  0  0  0  0  0  0  0
    0.2305    0.3167    0.6205 C   0  0  0  0  0  0  0  0  0  0  0  0
    0.4584    1.2419   -0.4096 C   0  0  0  0  0  0  0  0  0  0  0  0
   -0.5133    2.1298   -0.9066 C   0  0  0  0  0  0  0  0  0  0  0  0
   -1.7738    2.0857   -0.3299 C   0  0  0  0  0  0  0  0  0  0  0  0
   -2.0388    1.1730    0.7006 C   0  0  0  0  0  0  0  0  0  0  0  0
   -1.2727   -0.3992    1.9635 H   0  0  0  0  0  0  0  0  0  0  0  0
    1.0396   -0.3340    0.9484 H   0  0  0  0  0  0  0  0  0  0  0  0
   -0.2734    2.8215   -1.7066 H   0  0  0  0  0  0  0  0  0  0  0  0
   -2.5490    2.7577   -0.6815 H   0  0  0  0  0  0  0  0  0  0  0  0
    1.7019    1.2801   -1.0224 N   0  0  0  0  0  0  0  0  0  0  0  0
    2.6578    1.3231   -1.5930 N   0  0  0  0  0  0  0  0  0  0  0  0
    3.6432    0.0384    1.0488 B   0  0  0  0  0  0  0  0  0  0  0  0
    4.5476   -0.1398    2.0640 F   0  0  0  0  0  0  0  0  0  0  0  0
    2.7718   -1.0812    0.9250 F   0  0  0  0  0  0  0  0  0  0  0  0
    2.8144    1.1780    1.2803 F   0  0  0  0  0  0  0  0  0  0  0  0
    4.2758    0.2390   -0.2044 F   0  0  0  0  0  0  0  0  0  0  0  0
   -3.0289    1.1460    1.1450 H   0  0  0  0  0  0  0  0  0  0  0  0
  1  7  1  0  0  0  0
  2  8  1  0  0  0  0
  2  1  2  0  0  0  0
  3  2  1  0  0  0  0
  4  3  2  0  0  0  0
  4  5  1  0  0  0  0
  5  6  2  0  0  0  0
  6 18  1  0  0  0  0
  6  1  1  0  0  0  0
  9  4  1  0  0  0  0
 10  5  1  0  0  0  0
 11  3  1  0  0  0  0
 12 11  1  0  0  0  0
 13 16  1  0  0  0  0
 13 14  1  0  0  0  0
 15 13  1  0  0  0  0
 17 13  1  0  0  0  0
M  RAD  2  11   2  12   3
M  END
