Coordinates from ORCA-job Ph-N2-BF4-B3LYPG-6-31G_dp-scan-d09-49-n400
 OpenBabel08281821203D

 18 17  0  0  0  0  0  0  0  0999 V2000
   -1.1141    0.1023    0.8701 C   0  0  0  0  0  0  0  0  0  0  0  0
    0.1973    0.1506    0.4115 C   0  0  0  0  0  0  0  0  0  0  0  0
    0.5343    1.2344   -0.4115 C   0  0  0  0  0  0  0  0  0  0  0  0
   -0.3583    2.2553   -0.7827 C   0  0  0  0  0  0  0  0  0  0  0  0
   -1.6550    2.1749   -0.2952 C   0  0  0  0  0  0  0  0  0  0  0  0
   -2.0287    1.1033    0.5268 C   0  0  0  0  0  0  0  0  0  0  0  0
   -1.4184   -0.7178    1.5115 H   0  0  0  0  0  0  0  0  0  0  0  0
    0.9643   -0.5810    0.6439 H   0  0  0  0  0  0  0  0  0  0  0  0
   -0.0340    3.0734   -1.4160 H   0  0  0  0  0  0  0  0  0  0  0  0
   -2.3726    2.9461   -0.5532 H   0  0  0  0  0  0  0  0  0  0  0  0
    1.8178    1.3250   -0.9335 N   0  0  0  0  0  0  0  0  0  0  0  0
    2.7691    1.4781   -1.4868 N   0  0  0  0  0  0  0  0  0  0  0  0
    3.5163    0.0878    1.2351 B   0  0  0  0  0  0  0  0  0  0  0  0
    4.6926    0.5649    0.6764 F   0  0  0  0  0  0  0  0  0  0  0  0
    3.6990   -0.5859    2.4182 F   0  0  0  0  0  0  0  0  0  0  0  0
    2.6087    1.1848    1.4169 F   0  0  0  0  0  0  0  0  0  0  0  0
    2.8671   -0.7729    0.2698 F   0  0  0  0  0  0  0  0  0  0  0  0
   -3.0450    1.0527    0.9048 H   0  0  0  0  0  0  0  0  0  0  0  0
  1  7  1  0  0  0  0
  2  8  1  0  0  0  0
  2  1  2  0  0  0  0
  3  2  1  0  0  0  0
  4  3  2  0  0  0  0
  4  5  1  0  0  0  0
  5  6  2  0  0  0  0
  6  1  1  0  0  0  0
  6 18  1  0  0  0  0
  9  4  1  0  0  0  0
 10  5  1  0  0  0  0
 11  3  1  0  0  0  0
 12 11  1  0  0  0  0
 13 16  1  0  0  0  0
 13 15  1  0  0  0  0
 14 13  1  0  0  0  0
 17 13  1  0  0  0  0
M  RAD  2  11   2  12   3
M  END
