Coordinates from ORCA-job Ph-N2-BF4-B3LYPG-6-31G_dp-scan-d09-49-n400
 OpenBabel08281821203D

 18 17  0  0  0  0  0  0  0  0999 V2000
   -1.1088    0.1168    0.7676 C   0  0  0  0  0  0  0  0  0  0  0  0
    0.2249    0.2669    0.3993 C   0  0  0  0  0  0  0  0  0  0  0  0
    0.5401    1.3962   -0.3740 C   0  0  0  0  0  0  0  0  0  0  0  0
   -0.4020    2.3565   -0.7805 C   0  0  0  0  0  0  0  0  0  0  0  0
   -1.7196    2.1763   -0.3842 C   0  0  0  0  0  0  0  0  0  0  0  0
   -2.0688    1.0588    0.3859 C   0  0  0  0  0  0  0  0  0  0  0  0
   -1.3951   -0.7418    1.3656 H   0  0  0  0  0  0  0  0  0  0  0  0
    1.0028   -0.4364    0.6910 H   0  0  0  0  0  0  0  0  0  0  0  0
   -0.0952    3.2088   -1.3765 H   0  0  0  0  0  0  0  0  0  0  0  0
   -2.4727    2.9008   -0.6740 H   0  0  0  0  0  0  0  0  0  0  0  0
    1.8488    1.5793   -0.7922 N   0  0  0  0  0  0  0  0  0  0  0  0
    2.9318    1.6269   -1.0742 N   0  0  0  0  0  0  0  0  0  0  0  0
    3.5097   -0.0838    1.2750 B   0  0  0  0  0  0  0  0  0  0  0  0
    3.9956    0.1887   -0.0670 F   0  0  0  0  0  0  0  0  0  0  0  0
    4.5613   -0.2610    2.1276 F   0  0  0  0  0  0  0  0  0  0  0  0
    2.7065    1.0229    1.6320 F   0  0  0  0  0  0  0  0  0  0  0  0
    2.6830   -1.2242    1.1930 F   0  0  0  0  0  0  0  0  0  0  0  0
   -3.1019    0.9243    0.6915 H   0  0  0  0  0  0  0  0  0  0  0  0
  1  7  1  0  0  0  0
  2  8  1  0  0  0  0
  2  1  1  0  0  0  0
  3  2  2  0  0  0  0
  4  5  2  0  0  0  0
  4  3  1  0  0  0  0
  5  6  1  0  0  0  0
  6 18  1  0  0  0  0
  6  1  2  0  0  0  0
  9  4  1  0  0  0  0
 10  5  1  0  0  0  0
 11  3  1  0  0  0  0
 12 11  1  0  0  0  0
 13 16  1  0  0  0  0
 13 15  1  0  0  0  0
 14 13  1  0  0  0  0
 17 13  1  0  0  0  0
M  RAD  2  11   2  12   3
M  END
