Coordinates from ORCA-job Ph-N2-BF4-B3LYPG-6-31G_dp-scan-d09-49-n400
 OpenBabel08281821203D

 18 17  0  0  0  0  0  0  0  0999 V2000
   -1.1246    0.1270    0.8215 C   0  0  0  0  0  0  0  0  0  0  0  0
    0.2091    0.2493    0.4431 C   0  0  0  0  0  0  0  0  0  0  0  0
    0.5302    1.3560   -0.3576 C   0  0  0  0  0  0  0  0  0  0  0  0
   -0.3979    2.3233   -0.7842 C   0  0  0  0  0  0  0  0  0  0  0  0
   -1.7141    2.1683   -0.3753 C   0  0  0  0  0  0  0  0  0  0  0  0
   -2.0732    1.0736    0.4236 C   0  0  0  0  0  0  0  0  0  0  0  0
   -1.4201   -0.7132    1.4407 H   0  0  0  0  0  0  0  0  0  0  0  0
    0.9923   -0.4501    0.7325 H   0  0  0  0  0  0  0  0  0  0  0  0
   -0.0839    3.1579   -1.4012 H   0  0  0  0  0  0  0  0  0  0  0  0
   -2.4591    2.8963   -0.6772 H   0  0  0  0  0  0  0  0  0  0  0  0
    1.8356    1.5138   -0.7998 N   0  0  0  0  0  0  0  0  0  0  0  0
    2.8439    1.6755   -1.2435 N   0  0  0  0  0  0  0  0  0  0  0  0
    3.5522   -0.0650    1.2342 B   0  0  0  0  0  0  0  0  0  0  0  0
    4.3615    0.3140    0.1400 F   0  0  0  0  0  0  0  0  0  0  0  0
    4.2941   -0.3860    2.3404 F   0  0  0  0  0  0  0  0  0  0  0  0
    2.6690    1.0279    1.5079 F   0  0  0  0  0  0  0  0  0  0  0  0
    2.7314   -1.1546    0.8220 F   0  0  0  0  0  0  0  0  0  0  0  0
   -3.1060    0.9619    0.7388 H   0  0  0  0  0  0  0  0  0  0  0  0
  1  7  1  0  0  0  0
  2  8  1  0  0  0  0
  2  1  1  0  0  0  0
  3  2  2  0  0  0  0
  4  5  2  0  0  0  0
  4  3  1  0  0  0  0
  5  6  1  0  0  0  0
  6 18  1  0  0  0  0
  6  1  2  0  0  0  0
  9  4  1  0  0  0  0
 10  5  1  0  0  0  0
 11  3  1  0  0  0  0
 12 11  1  0  0  0  0
 13 16  1  0  0  0  0
 13 15  1  0  0  0  0
 14 13  1  0  0  0  0
 17 13  1  0  0  0  0
M  RAD  2  11   2  12   3
M  END
