Coordinates from ORCA-job Ph-N2-BF4-B3LYPG-6-31G_dp-scan-d09-49-n400
 OpenBabel08281821203D

 18 17  0  0  0  0  0  0  0  0999 V2000
   -1.1083    0.0997    0.8714 C   0  0  0  0  0  0  0  0  0  0  0  0
    0.2009    0.1482    0.4067 C   0  0  0  0  0  0  0  0  0  0  0  0
    0.5347    1.2328   -0.4167 C   0  0  0  0  0  0  0  0  0  0  0  0
   -0.3593    2.2545   -0.7821 C   0  0  0  0  0  0  0  0  0  0  0  0
   -1.6538    2.1739   -0.2888 C   0  0  0  0  0  0  0  0  0  0  0  0
   -2.0242    1.1014    0.5334 C   0  0  0  0  0  0  0  0  0  0  0  0
   -1.4098   -0.7211    1.5132 H   0  0  0  0  0  0  0  0  0  0  0  0
    0.9685   -0.5841    0.6347 H   0  0  0  0  0  0  0  0  0  0  0  0
   -0.0376    3.0734   -1.4158 H   0  0  0  0  0  0  0  0  0  0  0  0
   -2.3722    2.9458   -0.5425 H   0  0  0  0  0  0  0  0  0  0  0  0
    1.8155    1.3229   -0.9452 N   0  0  0  0  0  0  0  0  0  0  0  0
    2.7635    1.4741   -1.5044 N   0  0  0  0  0  0  0  0  0  0  0  0
    3.5119    0.0929    1.2376 B   0  0  0  0  0  0  0  0  0  0  0  0
    4.7123    0.5455    0.7142 F   0  0  0  0  0  0  0  0  0  0  0  0
    3.6447   -0.5857    2.4251 F   0  0  0  0  0  0  0  0  0  0  0  0
    2.6199    1.2070    1.3951 F   0  0  0  0  0  0  0  0  0  0  0  0
    2.8725   -0.7560    0.2541 F   0  0  0  0  0  0  0  0  0  0  0  0
   -3.0388    1.0506    0.9160 H   0  0  0  0  0  0  0  0  0  0  0  0
  1  7  1  0  0  0  0
  2  8  1  0  0  0  0
  2  1  2  0  0  0  0
  3  2  1  0  0  0  0
  4  3  2  0  0  0  0
  4  5  1  0  0  0  0
  5  6  2  0  0  0  0
  6  1  1  0  0  0  0
  6 18  1  0  0  0  0
  9  4  1  0  0  0  0
 10  5  1  0  0  0  0
 11  3  1  0  0  0  0
 12 11  1  0  0  0  0
 13 16  1  0  0  0  0
 13 15  1  0  0  0  0
 14 13  1  0  0  0  0
 17 13  1  0  0  0  0
M  RAD  2  11   2  12   3
M  END
