Coordinates from ORCA-job Ph-N2-BF4-B3LYPG-6-31G_dp-scan-d09-49-n400
 OpenBabel08281821203D

 18 17  0  0  0  0  0  0  0  0999 V2000
   -1.1268    0.1282    0.8195 C   0  0  0  0  0  0  0  0  0  0  0  0
    0.2079    0.2523    0.4454 C   0  0  0  0  0  0  0  0  0  0  0  0
    0.5309    1.3587   -0.3551 C   0  0  0  0  0  0  0  0  0  0  0  0
   -0.3974    2.3242   -0.7850 C   0  0  0  0  0  0  0  0  0  0  0  0
   -1.7148    2.1682   -0.3799 C   0  0  0  0  0  0  0  0  0  0  0  0
   -2.0753    1.0735    0.4184 C   0  0  0  0  0  0  0  0  0  0  0  0
   -1.4231   -0.7122    1.4380 H   0  0  0  0  0  0  0  0  0  0  0  0
    0.9903   -0.4465    0.7382 H   0  0  0  0  0  0  0  0  0  0  0  0
   -0.0826    3.1583   -1.4022 H   0  0  0  0  0  0  0  0  0  0  0  0
   -2.4597    2.8950   -0.6848 H   0  0  0  0  0  0  0  0  0  0  0  0
    1.8377    1.5153   -0.7934 N   0  0  0  0  0  0  0  0  0  0  0  0
    2.8564    1.6634   -1.2193 N   0  0  0  0  0  0  0  0  0  0  0  0
    3.5498   -0.0650    1.2339 B   0  0  0  0  0  0  0  0  0  0  0  0
    4.3259    0.3245    0.1141 F   0  0  0  0  0  0  0  0  0  0  0  0
    4.3304   -0.3828    2.3133 F   0  0  0  0  0  0  0  0  0  0  0  0
    2.6703    1.0205    1.5341 F   0  0  0  0  0  0  0  0  0  0  0  0
    2.7297   -1.1604    0.8403 F   0  0  0  0  0  0  0  0  0  0  0  0
   -3.1090    0.9607    0.7304 H   0  0  0  0  0  0  0  0  0  0  0  0
  1  7  1  0  0  0  0
  2  8  1  0  0  0  0
  2  1  1  0  0  0  0
  3  2  2  0  0  0  0
  4  5  2  0  0  0  0
  4  3  1  0  0  0  0
  5  6  1  0  0  0  0
  6 18  1  0  0  0  0
  6  1  2  0  0  0  0
  9  4  1  0  0  0  0
 10  5  1  0  0  0  0
 11  3  1  0  0  0  0
 12 11  1  0  0  0  0
 13 16  1  0  0  0  0
 13 15  1  0  0  0  0
 14 13  1  0  0  0  0
 17 13  1  0  0  0  0
M  RAD  2  11   2  12   3
M  END
