Coordinates from ORCA-job Ph-N2-BF4-B3LYPG-6-31G_dp-scan-d09-49-n400
 OpenBabel08281821203D

 18 17  0  0  0  0  0  0  0  0999 V2000
   -1.0360    0.2960    1.1617 C   0  0  0  0  0  0  0  0  0  0  0  0
    0.2391    0.3082    0.6037 C   0  0  0  0  0  0  0  0  0  0  0  0
    0.4582    1.2354   -0.4267 C   0  0  0  0  0  0  0  0  0  0  0  0
   -0.5143    2.1312   -0.9092 C   0  0  0  0  0  0  0  0  0  0  0  0
   -1.7675    2.0917   -0.3171 C   0  0  0  0  0  0  0  0  0  0  0  0
   -2.0247    1.1764    0.7134 C   0  0  0  0  0  0  0  0  0  0  0  0
   -1.2517   -0.4035    1.9622 H   0  0  0  0  0  0  0  0  0  0  0  0
    1.0506   -0.3448    0.9224 H   0  0  0  0  0  0  0  0  0  0  0  0
   -0.2805    2.8244   -1.7096 H   0  0  0  0  0  0  0  0  0  0  0  0
   -2.5432    2.7693   -0.6566 H   0  0  0  0  0  0  0  0  0  0  0  0
    1.6917    1.2681   -1.0601 N   0  0  0  0  0  0  0  0  0  0  0  0
    2.6228    1.3132   -1.6694 N   0  0  0  0  0  0  0  0  0  0  0  0
    3.6377    0.0435    1.0694 B   0  0  0  0  0  0  0  0  0  0  0  0
    4.4929   -0.1466    2.1296 F   0  0  0  0  0  0  0  0  0  0  0  0
    2.7737   -1.0795    0.8994 F   0  0  0  0  0  0  0  0  0  0  0  0
    2.7888    1.1767    1.2760 F   0  0  0  0  0  0  0  0  0  0  0  0
    4.3120    0.2628   -0.1530 F   0  0  0  0  0  0  0  0  0  0  0  0
   -3.0094    1.1534    1.1699 H   0  0  0  0  0  0  0  0  0  0  0  0
  1  7  1  0  0  0  0
  2  8  1  0  0  0  0
  2  1  2  0  0  0  0
  3  2  1  0  0  0  0
  4  3  2  0  0  0  0
  4  5  1  0  0  0  0
  5  6  2  0  0  0  0
  6  1  1  0  0  0  0
  6 18  1  0  0  0  0
  9  4  1  0  0  0  0
 10  5  1  0  0  0  0
 11  3  1  0  0  0  0
 12 11  1  0  0  0  0
 13 16  1  0  0  0  0
 13 14  1  0  0  0  0
 15 13  1  0  0  0  0
 17 13  1  0  0  0  0
M  RAD  2  11   2  12   3
M  END
