Coordinates from ORCA-job Ph-N2-BF4-B3LYPG-6-31G_dp-scan-d09-49-n400
 OpenBabel08281821203D

 18 17  0  0  0  0  0  0  0  0999 V2000
   -0.5576   -0.1797    0.4842 C   0  0  0  0  0  0  0  0  0  0  0  0
    0.4815   -0.0551   -0.4417 C   0  0  0  0  0  0  0  0  0  0  0  0
    0.7680    1.1953   -1.0146 C   0  0  0  0  0  0  0  0  0  0  0  0
   -0.0086    2.3062   -0.6614 C   0  0  0  0  0  0  0  0  0  0  0  0
   -1.0378    2.1767    0.2705 C   0  0  0  0  0  0  0  0  0  0  0  0
   -1.3150    0.9362    0.8488 C   0  0  0  0  0  0  0  0  0  0  0  0
   -0.7771   -1.1517    0.9159 H   0  0  0  0  0  0  0  0  0  0  0  0
    1.0522   -0.9290   -0.7416 H   0  0  0  0  0  0  0  0  0  0  0  0
    0.2063    3.2637   -1.1253 H   0  0  0  0  0  0  0  0  0  0  0  0
   -1.6276    3.0472    0.5427 H   0  0  0  0  0  0  0  0  0  0  0  0
    1.7666    1.3543   -2.0399 N   0  0  0  0  0  0  0  0  0  0  0  0
    2.9876    1.1946   -1.6822 N   0  0  0  0  0  0  0  0  0  0  0  0
    2.1380    0.2726    2.1973 B   0  0  0  0  0  0  0  0  0  0  0  0
    3.2024    0.9913   -0.7477 F   0  0  0  0  0  0  0  0  0  0  0  0
    2.8891   -0.5834    1.5226 F   0  0  0  0  0  0  0  0  0  0  0  0
    2.2735    1.5664    1.9767 F   0  0  0  0  0  0  0  0  0  0  0  0
    1.3206   -0.1652    3.1328 F   0  0  0  0  0  0  0  0  0  0  0  0
   -2.1213    0.8355    1.5690 H   0  0  0  0  0  0  0  0  0  0  0  0
  1  6  1  0  0  0  0
  1  7  1  0  0  0  0
  2  1  2  0  0  0  0
  3  4  2  0  0  0  0
  3  2  1  0  0  0  0
  4  5  1  0  0  0  0
  5 10  1  0  0  0  0
  5  6  2  0  0  0  0
  6 18  1  0  0  0  0
  8  2  1  0  0  0  0
  9  4  1  0  0  0  0
 11 12  2  0  0  0  0
 11  3  1  0  0  0  0
 12 14  1  0  0  0  0
 13 17  1  0  0  0  0
 15 13  1  0  0  0  0
 16 13  1  0  0  0  0
M  END
