Coordinates from ORCA-job Ph-N2-BF4-B3LYPG-6-31G_dp-scan-d09-49-n400
 OpenBabel08281821203D

 18 17  0  0  0  0  0  0  0  0999 V2000
   -1.1029    0.1219    0.7617 C   0  0  0  0  0  0  0  0  0  0  0  0
    0.2322    0.2847    0.4034 C   0  0  0  0  0  0  0  0  0  0  0  0
    0.5453    1.4151   -0.3700 C   0  0  0  0  0  0  0  0  0  0  0  0
   -0.4060    2.3625   -0.7843 C   0  0  0  0  0  0  0  0  0  0  0  0
   -1.7258    2.1704   -0.4005 C   0  0  0  0  0  0  0  0  0  0  0  0
   -2.0702    1.0521    0.3696 C   0  0  0  0  0  0  0  0  0  0  0  0
   -1.3850   -0.7379    1.3601 H   0  0  0  0  0  0  0  0  0  0  0  0
    1.0072   -0.4146    0.7082 H   0  0  0  0  0  0  0  0  0  0  0  0
   -0.1023    3.2160   -1.3803 H   0  0  0  0  0  0  0  0  0  0  0  0
   -2.4837    2.8861   -0.6997 H   0  0  0  0  0  0  0  0  0  0  0  0
    1.8543    1.6201   -0.7800 N   0  0  0  0  0  0  0  0  0  0  0  0
    2.9551    1.6120   -1.0132 N   0  0  0  0  0  0  0  0  0  0  0  0
    3.5003   -0.0974    1.2896 B   0  0  0  0  0  0  0  0  0  0  0  0
    3.8732    0.1689   -0.1135 F   0  0  0  0  0  0  0  0  0  0  0  0
    4.6332   -0.2643    2.0279 F   0  0  0  0  0  0  0  0  0  0  0  0
    2.7369    1.0120    1.6904 F   0  0  0  0  0  0  0  0  0  0  0  0
    2.6826   -1.2388    1.2692 F   0  0  0  0  0  0  0  0  0  0  0  0
   -3.1042    0.9072    0.6672 H   0  0  0  0  0  0  0  0  0  0  0  0
  1  7  1  0  0  0  0
  2  8  1  0  0  0  0
  2  1  1  0  0  0  0
  3  2  2  0  0  0  0
  4  5  2  0  0  0  0
  4  3  1  0  0  0  0
  5  6  1  0  0  0  0
  6 18  1  0  0  0  0
  6  1  2  0  0  0  0
  9  4  1  0  0  0  0
 10  5  1  0  0  0  0
 11  3  1  0  0  0  0
 12 11  1  0  0  0  0
 13 16  1  0  0  0  0
 13 15  1  0  0  0  0
 14 13  1  0  0  0  0
 17 13  1  0  0  0  0
M  RAD  2  11   2  12   3
M  END
