Coordinates from ORCA-job Ph-N2-BF4-B3LYPG-6-31G_dp-scan-d09-49-n400
 OpenBabel08281821203D

 18 17  0  0  0  0  0  0  0  0999 V2000
   -1.1292    0.1294    0.8187 C   0  0  0  0  0  0  0  0  0  0  0  0
    0.2062    0.2538    0.4474 C   0  0  0  0  0  0  0  0  0  0  0  0
    0.5314    1.3594   -0.3535 C   0  0  0  0  0  0  0  0  0  0  0  0
   -0.3967    2.3236   -0.7863 C   0  0  0  0  0  0  0  0  0  0  0  0
   -1.7151    2.1679   -0.3841 C   0  0  0  0  0  0  0  0  0  0  0  0
   -2.0771    1.0740    0.4145 C   0  0  0  0  0  0  0  0  0  0  0  0
   -1.4266   -0.7106    1.4373 H   0  0  0  0  0  0  0  0  0  0  0  0
    0.9872   -0.4450    0.7431 H   0  0  0  0  0  0  0  0  0  0  0  0
   -0.0808    3.1571   -1.4038 H   0  0  0  0  0  0  0  0  0  0  0  0
   -2.4595    2.8941   -0.6914 H   0  0  0  0  0  0  0  0  0  0  0  0
    1.8397    1.5157   -0.7870 N   0  0  0  0  0  0  0  0  0  0  0  0
    2.8674    1.6537   -1.1958 N   0  0  0  0  0  0  0  0  0  0  0  0
    3.5477   -0.0643    1.2331 B   0  0  0  0  0  0  0  0  0  0  0  0
    4.2975    0.3360    0.0942 F   0  0  0  0  0  0  0  0  0  0  0  0
    4.3591   -0.3804    2.2893 F   0  0  0  0  0  0  0  0  0  0  0  0
    2.6711    1.0142    1.5550 F   0  0  0  0  0  0  0  0  0  0  0  0
    2.7297   -1.1638    0.8513 F   0  0  0  0  0  0  0  0  0  0  0  0
   -3.1115    0.9610    0.7241 H   0  0  0  0  0  0  0  0  0  0  0  0
  1  7  1  0  0  0  0
  2  8  1  0  0  0  0
  2  1  1  0  0  0  0
  3  2  2  0  0  0  0
  4  5  2  0  0  0  0
  4  3  1  0  0  0  0
  5  6  1  0  0  0  0
  6 18  1  0  0  0  0
  6  1  2  0  0  0  0
  9  4  1  0  0  0  0
 10  5  1  0  0  0  0
 11  3  1  0  0  0  0
 12 11  1  0  0  0  0
 13 16  1  0  0  0  0
 13 15  1  0  0  0  0
 14 13  1  0  0  0  0
 17 13  1  0  0  0  0
M  RAD  2  11   2  12   3
M  END
