Coordinates from ORCA-job Ph-N2-BF4-B3LYPG-6-31G_dp-scan-d09-49-n400
 OpenBabel08281821203D

 18 17  0  0  0  0  0  0  0  0999 V2000
   -1.1296    0.1103    0.8683 C   0  0  0  0  0  0  0  0  0  0  0  0
    0.1889    0.1629    0.4302 C   0  0  0  0  0  0  0  0  0  0  0  0
    0.5337    1.2448   -0.3921 C   0  0  0  0  0  0  0  0  0  0  0  0
   -0.3586    2.2586   -0.7834 C   0  0  0  0  0  0  0  0  0  0  0  0
   -1.6624    2.1740   -0.3164 C   0  0  0  0  0  0  0  0  0  0  0  0
   -2.0436    1.1046    0.5054 C   0  0  0  0  0  0  0  0  0  0  0  0
   -1.4402   -0.7086    1.5081 H   0  0  0  0  0  0  0  0  0  0  0  0
    0.9552   -0.5650    0.6767 H   0  0  0  0  0  0  0  0  0  0  0  0
   -0.0286    3.0747   -1.4165 H   0  0  0  0  0  0  0  0  0  0  0  0
   -2.3800    2.9397   -0.5903 H   0  0  0  0  0  0  0  0  0  0  0  0
    1.8255    1.3396   -0.8929 N   0  0  0  0  0  0  0  0  0  0  0  0
    2.7889    1.4963   -1.4246 N   0  0  0  0  0  0  0  0  0  0  0  0
    3.5302    0.0698    1.2241 B   0  0  0  0  0  0  0  0  0  0  0  0
    4.6400    0.5888    0.5648 F   0  0  0  0  0  0  0  0  0  0  0  0
    3.8392   -0.5832    2.3909 F   0  0  0  0  0  0  0  0  0  0  0  0
    2.6047    1.1376    1.4688 F   0  0  0  0  0  0  0  0  0  0  0  0
    2.8426   -0.8193    0.3175 F   0  0  0  0  0  0  0  0  0  0  0  0
   -3.0656    1.0505    0.8672 H   0  0  0  0  0  0  0  0  0  0  0  0
  1  7  1  0  0  0  0
  2  8  1  0  0  0  0
  2  1  2  0  0  0  0
  3  2  1  0  0  0  0
  4  3  2  0  0  0  0
  4  5  1  0  0  0  0
  5  6  2  0  0  0  0
  6 18  1  0  0  0  0
  6  1  1  0  0  0  0
  9  4  1  0  0  0  0
 10  5  1  0  0  0  0
 11  3  1  0  0  0  0
 12 11  1  0  0  0  0
 13 16  1  0  0  0  0
 13 15  1  0  0  0  0
 14 13  1  0  0  0  0
 17 13  1  0  0  0  0
M  RAD  2  11   2  12   3
M  END
