Coordinates from ORCA-job Ph-N2-BF4-B3LYPG-6-31G_dp-scan-d09-49-n400
 OpenBabel08281821203D

 18 17  0  0  0  0  0  0  0  0999 V2000
   -1.0451    0.0956    0.6733 C   0  0  0  0  0  0  0  0  0  0  0  0
    0.2816    0.3040    0.3092 C   0  0  0  0  0  0  0  0  0  0  0  0
    0.5737    1.4730   -0.4145 C   0  0  0  0  0  0  0  0  0  0  0  0
   -0.4066    2.4119   -0.7698 C   0  0  0  0  0  0  0  0  0  0  0  0
   -1.7223    2.1750   -0.3925 C   0  0  0  0  0  0  0  0  0  0  0  0
   -2.0382    1.0177    0.3279 C   0  0  0  0  0  0  0  0  0  0  0  0
   -1.3013   -0.7949    1.2377 H   0  0  0  0  0  0  0  0  0  0  0  0
    1.0585   -0.3967    0.5869 H   0  0  0  0  0  0  0  0  0  0  0  0
   -0.1236    3.2990   -1.3255 H   0  0  0  0  0  0  0  0  0  0  0  0
   -2.4971    2.8869   -0.6559 H   0  0  0  0  0  0  0  0  0  0  0  0
    1.8771    1.7569   -0.8273 N   0  0  0  0  0  0  0  0  0  0  0  0
    2.9845    1.4683   -0.8907 N   0  0  0  0  0  0  0  0  0  0  0  0
    3.4468   -0.0923    1.4217 B   0  0  0  0  0  0  0  0  0  0  0  0
    3.2601   -0.0842   -0.1500 F   0  0  0  0  0  0  0  0  0  0  0  0
    4.7676   -0.2915    1.6414 F   0  0  0  0  0  0  0  0  0  0  0  0
    2.9661    1.1420    1.8012 F   0  0  0  0  0  0  0  0  0  0  0  0
    2.6249   -1.1302    1.8072 F   0  0  0  0  0  0  0  0  0  0  0  0
   -3.0662    0.8354    0.6257 H   0  0  0  0  0  0  0  0  0  0  0  0
  1  7  1  0  0  0  0
  2  8  1  0  0  0  0
  2  1  2  0  0  0  0
  3  2  1  0  0  0  0
  4  3  2  0  0  0  0
  4  5  1  0  0  0  0
  5  6  2  0  0  0  0
  6 18  1  0  0  0  0
  6  1  1  0  0  0  0
  9  4  1  0  0  0  0
 10  5  1  0  0  0  0
 11  3  1  0  0  0  0
 12 11  2  0  0  0  0
 13 15  1  0  0  0  0
 13 16  1  0  0  0  0
 13 17  1  0  0  0  0
 14 13  1  0  0  0  0
M  RAD  1  12   2
M  END
