Coordinates from ORCA-job Ph-N2-BF4-B3LYPG-6-31G_dp-scan-d09-49-n400
 OpenBabel08281821203D

 18 17  0  0  0  0  0  0  0  0999 V2000
   -1.1665    0.1659    0.6548 C   0  0  0  0  0  0  0  0  0  0  0  0
    0.1688    0.4786    0.4134 C   0  0  0  0  0  0  0  0  0  0  0  0
    0.4658    1.6197   -0.3580 C   0  0  0  0  0  0  0  0  0  0  0  0
   -0.5680    2.4281   -0.8594 C   0  0  0  0  0  0  0  0  0  0  0  0
   -1.8963    2.0883   -0.6256 C   0  0  0  0  0  0  0  0  0  0  0  0
   -2.1960    0.9551    0.1339 C   0  0  0  0  0  0  0  0  0  0  0  0
   -1.4040   -0.7080    1.2535 H   0  0  0  0  0  0  0  0  0  0  0  0
    0.9572   -0.1311    0.8259 H   0  0  0  0  0  0  0  0  0  0  0  0
   -0.3026    3.3114   -1.4301 H   0  0  0  0  0  0  0  0  0  0  0  0
   -2.6924    2.7087   -1.0242 H   0  0  0  0  0  0  0  0  0  0  0  0
    1.7565    2.1060   -0.6695 N   0  0  0  0  0  0  0  0  0  0  0  0
    2.8544    1.6225   -0.6038 N   0  0  0  0  0  0  0  0  0  0  0  0
    3.9890   -0.3580    1.7254 B   0  0  0  0  0  0  0  0  0  0  0  0
    2.8568    0.2408   -0.1278 F   0  0  0  0  0  0  0  0  0  0  0  0
    4.8919   -1.0717    1.0782 F   0  0  0  0  0  0  0  0  0  0  0  0
    4.2554    0.8856    2.0878 F   0  0  0  0  0  0  0  0  0  0  0  0
    2.9013   -0.9555    2.2038 F   0  0  0  0  0  0  0  0  0  0  0  0
   -3.2311    0.6898    0.3277 H   0  0  0  0  0  0  0  0  0  0  0  0
  1  7  1  0  0  0  0
  2  1  1  0  0  0  0
  2  8  1  0  0  0  0
  3  2  2  0  0  0  0
  4  5  2  0  0  0  0
  4  3  1  0  0  0  0
  5  6  1  0  0  0  0
  6 18  1  0  0  0  0
  6  1  2  0  0  0  0
  9  4  1  0  0  0  0
 10  5  1  0  0  0  0
 11 12  1  0  0  0  0
 11  3  1  0  0  0  0
 12 14  1  0  0  0  0
 13 16  1  0  0  0  0
 13 17  1  0  0  0  0
 15 13  1  0  0  0  0
M  RAD  2  11   2  12   2
M  END
