Coordinates from ORCA-job Ph-N2-BF4-B3LYPG-6-31G_dp-scan-d09-49-n400
 OpenBabel08281821203D

 18 17  0  0  0  0  0  0  0  0999 V2000
   -1.1264    0.1289    0.8192 C   0  0  0  0  0  0  0  0  0  0  0  0
    0.2083    0.2535    0.4453 C   0  0  0  0  0  0  0  0  0  0  0  0
    0.5309    1.3598   -0.3557 C   0  0  0  0  0  0  0  0  0  0  0  0
   -0.3982    2.3245   -0.7860 C   0  0  0  0  0  0  0  0  0  0  0  0
   -1.7155    2.1680   -0.3811 C   0  0  0  0  0  0  0  0  0  0  0  0
   -2.0754    1.0734    0.4175 C   0  0  0  0  0  0  0  0  0  0  0  0
   -1.4224   -0.7114    1.4380 H   0  0  0  0  0  0  0  0  0  0  0  0
    0.9901   -0.4454    0.7392 H   0  0  0  0  0  0  0  0  0  0  0  0
   -0.0838    3.1586   -1.4034 H   0  0  0  0  0  0  0  0  0  0  0  0
   -2.4608    2.8943   -0.6863 H   0  0  0  0  0  0  0  0  0  0  0  0
    1.8375    1.5175   -0.7935 N   0  0  0  0  0  0  0  0  0  0  0  0
    2.8585    1.6631   -1.2149 N   0  0  0  0  0  0  0  0  0  0  0  0
    3.5494   -0.0662    1.2350 B   0  0  0  0  0  0  0  0  0  0  0  0
    4.3197    0.3249    0.1103 F   0  0  0  0  0  0  0  0  0  0  0  0
    4.3376   -0.3838    2.3088 F   0  0  0  0  0  0  0  0  0  0  0  0
    2.6712    1.0182    1.5395 F   0  0  0  0  0  0  0  0  0  0  0  0
    2.7289   -1.1620    0.8445 F   0  0  0  0  0  0  0  0  0  0  0  0
   -3.1091    0.9600    0.7294 H   0  0  0  0  0  0  0  0  0  0  0  0
  1  7  1  0  0  0  0
  2  8  1  0  0  0  0
  2  1  1  0  0  0  0
  3  2  2  0  0  0  0
  4  5  2  0  0  0  0
  4  3  1  0  0  0  0
  5  6  1  0  0  0  0
  6 18  1  0  0  0  0
  6  1  2  0  0  0  0
  9  4  1  0  0  0  0
 10  5  1  0  0  0  0
 11  3  1  0  0  0  0
 12 11  1  0  0  0  0
 13 16  1  0  0  0  0
 13 15  1  0  0  0  0
 14 13  1  0  0  0  0
 17 13  1  0  0  0  0
M  RAD  2  11   2  12   3
M  END
