Coordinates from ORCA-job Ph-N2-BF4-B3LYPG-6-31G_dp-scan-d09-49-n400
 OpenBabel08281821203D

 18 17  0  0  0  0  0  0  0  0999 V2000
   -1.0087    0.2809    1.0981 C   0  0  0  0  0  0  0  0  0  0  0  0
    0.2862    0.3994    0.6001 C   0  0  0  0  0  0  0  0  0  0  0  0
    0.4810    1.3671   -0.4002 C   0  0  0  0  0  0  0  0  0  0  0  0
   -0.5358    2.1967   -0.9061 C   0  0  0  0  0  0  0  0  0  0  0  0
   -1.8099    2.0466   -0.3792 C   0  0  0  0  0  0  0  0  0  0  0  0
   -2.0422    1.0911    0.6197 C   0  0  0  0  0  0  0  0  0  0  0  0
   -1.2043   -0.4507    1.8748 H   0  0  0  0  0  0  0  0  0  0  0  0
    1.1107   -0.2111    0.9691 H   0  0  0  0  0  0  0  0  0  0  0  0
   -0.3184    2.9249   -1.6797 H   0  0  0  0  0  0  0  0  0  0  0  0
   -2.6196    2.6693   -0.7431 H   0  0  0  0  0  0  0  0  0  0  0  0
    1.7427    1.5137   -0.9524 N   0  0  0  0  0  0  0  0  0  0  0  0
    2.7786    1.5486   -1.3608 N   0  0  0  0  0  0  0  0  0  0  0  0
    3.5987   -0.0638    1.0734 B   0  0  0  0  0  0  0  0  0  0  0  0
    4.8435   -0.1119    1.6327 F   0  0  0  0  0  0  0  0  0  0  0  0
    2.7129   -1.0250    1.6145 F   0  0  0  0  0  0  0  0  0  0  0  0
    2.9996    1.2157    1.2555 F   0  0  0  0  0  0  0  0  0  0  0  0
    3.6677   -0.2960   -0.3387 F   0  0  0  0  0  0  0  0  0  0  0  0
   -3.0420    0.9807    1.0282 H   0  0  0  0  0  0  0  0  0  0  0  0
  1  7  1  0  0  0  0
  2  8  1  0  0  0  0
  2  1  2  0  0  0  0
  3  2  1  0  0  0  0
  4  3  2  0  0  0  0
  4  5  1  0  0  0  0
  5  6  2  0  0  0  0
  6 18  1  0  0  0  0
  6  1  1  0  0  0  0
  9  4  1  0  0  0  0
 10  5  1  0  0  0  0
 11  3  1  0  0  0  0
 12 11  1  0  0  0  0
 13 16  1  0  0  0  0
 13 15  1  0  0  0  0
 13 14  1  0  0  0  0
 17 13  1  0  0  0  0
M  RAD  2  11   2  12   3
M  END
