Coordinates from ORCA-job Ph-N2-BF4-B3LYPG-6-31G_dp-scan-d09-49-n400
 OpenBabel08281821203D

 18 17  0  0  0  0  0  0  0  0999 V2000
   -1.1383    0.1351    0.8179 C   0  0  0  0  0  0  0  0  0  0  0  0
    0.1997    0.2588    0.4557 C   0  0  0  0  0  0  0  0  0  0  0  0
    0.5327    1.3608   -0.3478 C   0  0  0  0  0  0  0  0  0  0  0  0
   -0.3944    2.3202   -0.7918 C   0  0  0  0  0  0  0  0  0  0  0  0
   -1.7161    2.1666   -0.3991 C   0  0  0  0  0  0  0  0  0  0  0  0
   -2.0839    1.0771    0.4021 C   0  0  0  0  0  0  0  0  0  0  0  0
   -1.4401   -0.7023    1.4379 H   0  0  0  0  0  0  0  0  0  0  0  0
    0.9746   -0.4413    0.7607 H   0  0  0  0  0  0  0  0  0  0  0  0
   -0.0741    3.1504   -1.4115 H   0  0  0  0  0  0  0  0  0  0  0  0
   -2.4586    2.8907   -0.7162 H   0  0  0  0  0  0  0  0  0  0  0  0
    1.8451    1.5195   -0.7665 N   0  0  0  0  0  0  0  0  0  0  0  0
    2.8974    1.6302   -1.1255 N   0  0  0  0  0  0  0  0  0  0  0  0
    3.5444   -0.0663    1.2329 B   0  0  0  0  0  0  0  0  0  0  0  0
    4.2070    0.3785    0.0383 F   0  0  0  0  0  0  0  0  0  0  0  0
    4.4505   -0.3730    2.2086 F   0  0  0  0  0  0  0  0  0  0  0  0
    2.6754    0.9846    1.6250 F   0  0  0  0  0  0  0  0  0  0  0  0
    2.7399   -1.1785    0.8806 F   0  0  0  0  0  0  0  0  0  0  0  0
   -3.1205    0.9648    0.7046 H   0  0  0  0  0  0  0  0  0  0  0  0
  1  7  1  0  0  0  0
  2  8  1  0  0  0  0
  2  1  1  0  0  0  0
  3  2  2  0  0  0  0
  4  5  2  0  0  0  0
  4  3  1  0  0  0  0
  5  6  1  0  0  0  0
  6 18  1  0  0  0  0
  6  1  2  0  0  0  0
  9  4  1  0  0  0  0
 10  5  1  0  0  0  0
 11  3  1  0  0  0  0
 12 11  1  0  0  0  0
 13 16  1  0  0  0  0
 13 15  1  0  0  0  0
 14 13  1  0  0  0  0
 17 13  1  0  0  0  0
M  RAD  2  11   2  12   3
M  END
