Coordinates from ORCA-job Ph-N2-BF4-B3LYPG-6-31G_dp-scan-d09-49-n400
 OpenBabel08281821203D

 18 17  0  0  0  0  0  0  0  0999 V2000
   -1.0569    0.0964    0.8963 C   0  0  0  0  0  0  0  0  0  0  0  0
    0.2384    0.1549    0.3958 C   0  0  0  0  0  0  0  0  0  0  0  0
    0.5393    1.2371   -0.4438 C   0  0  0  0  0  0  0  0  0  0  0  0
   -0.3753    2.2470   -0.7905 C   0  0  0  0  0  0  0  0  0  0  0  0
   -1.6557    2.1558   -0.2631 C   0  0  0  0  0  0  0  0  0  0  0  0
   -1.9928    1.0852    0.5756 C   0  0  0  0  0  0  0  0  0  0  0  0
   -1.3311   -0.7227    1.5524 H   0  0  0  0  0  0  0  0  0  0  0  0
    1.0164   -0.5702    0.6106 H   0  0  0  0  0  0  0  0  0  0  0  0
   -0.0796    3.0654   -1.4372 H   0  0  0  0  0  0  0  0  0  0  0  0
   -2.3888    2.9183   -0.5029 H   0  0  0  0  0  0  0  0  0  0  0  0
    1.8033    1.3386   -1.0091 N   0  0  0  0  0  0  0  0  0  0  0  0
    2.7357    1.4898   -1.5929 N   0  0  0  0  0  0  0  0  0  0  0  0
    3.4763    0.1037    1.2417 B   0  0  0  0  0  0  0  0  0  0  0  0
    4.8022    0.3725    0.9833 F   0  0  0  0  0  0  0  0  0  0  0  0
    3.2579   -0.5957    2.4102 F   0  0  0  0  0  0  0  0  0  0  0  0
    2.7253    1.3273    1.2612 F   0  0  0  0  0  0  0  0  0  0  0  0
    2.9223   -0.6532    0.1334 F   0  0  0  0  0  0  0  0  0  0  0  0
   -2.9964    1.0258    0.9848 H   0  0  0  0  0  0  0  0  0  0  0  0
  1  7  1  0  0  0  0
  2  8  1  0  0  0  0
  2  1  2  0  0  0  0
  3  2  1  0  0  0  0
  4  3  2  0  0  0  0
  4  5  1  0  0  0  0
  5  6  2  0  0  0  0
  6  1  1  0  0  0  0
  6 18  1  0  0  0  0
  9  4  1  0  0  0  0
 10  5  1  0  0  0  0
 11  3  1  0  0  0  0
 12 11  1  0  0  0  0
 13 16  1  0  0  0  0
 13 15  1  0  0  0  0
 14 13  1  0  0  0  0
 17 13  1  0  0  0  0
M  RAD  2  11   2  12   3
M  END
