Coordinates from ORCA-job Ph-N2-BF4-B3LYPG-6-31G_dp-scan-d09-49-n400
 OpenBabel08281821203D

 18 17  0  0  0  0  0  0  0  0999 V2000
   -1.1116    0.1218    0.8232 C   0  0  0  0  0  0  0  0  0  0  0  0
    0.2176    0.2454    0.4296 C   0  0  0  0  0  0  0  0  0  0  0  0
    0.5280    1.3551   -0.3700 C   0  0  0  0  0  0  0  0  0  0  0  0
   -0.4038    2.3268   -0.7799 C   0  0  0  0  0  0  0  0  0  0  0  0
   -1.7146    2.1703   -0.3550 C   0  0  0  0  0  0  0  0  0  0  0  0
   -2.0643    1.0712    0.4423 C   0  0  0  0  0  0  0  0  0  0  0  0
   -1.3998   -0.7210    1.4422 H   0  0  0  0  0  0  0  0  0  0  0  0
    1.0064   -0.4537    0.7065 H   0  0  0  0  0  0  0  0  0  0  0  0
   -0.0970    3.1647   -1.3961 H   0  0  0  0  0  0  0  0  0  0  0  0
   -2.4624    2.9009   -0.6433 H   0  0  0  0  0  0  0  0  0  0  0  0
    1.8253    1.5139   -0.8372 N   0  0  0  0  0  0  0  0  0  0  0  0
    2.8014    1.6978   -1.3383 N   0  0  0  0  0  0  0  0  0  0  0  0
    3.5576   -0.0676    1.2445 B   0  0  0  0  0  0  0  0  0  0  0  0
    4.4788    0.2648    0.2433 F   0  0  0  0  0  0  0  0  0  0  0  0
    4.1591   -0.3945    2.4326 F   0  0  0  0  0  0  0  0  0  0  0  0
    2.6770    1.0571    1.4214 F   0  0  0  0  0  0  0  0  0  0  0  0
    2.7359   -1.1360    0.7700 F   0  0  0  0  0  0  0  0  0  0  0  0
   -3.0932    0.9589    0.7701 H   0  0  0  0  0  0  0  0  0  0  0  0
  1  7  1  0  0  0  0
  2  8  1  0  0  0  0
  2  1  2  0  0  0  0
  3  2  1  0  0  0  0
  4  3  2  0  0  0  0
  4  5  1  0  0  0  0
  5  6  2  0  0  0  0
  6 18  1  0  0  0  0
  6  1  1  0  0  0  0
  9  4  1  0  0  0  0
 10  5  1  0  0  0  0
 11  3  1  0  0  0  0
 12 11  1  0  0  0  0
 13 16  1  0  0  0  0
 13 15  1  0  0  0  0
 14 13  1  0  0  0  0
 17 13  1  0  0  0  0
M  RAD  2  11   2  12   3
M  END
