Coordinates from ORCA-job Ph-N2-BF4-B3LYPG-6-31G_dp-scan-d09-49-n400
 OpenBabel08281821203D

 18 17  0  0  0  0  0  0  0  0999 V2000
   -1.0979    0.0966    0.8751 C   0  0  0  0  0  0  0  0  0  0  0  0
    0.2079    0.1469    0.4015 C   0  0  0  0  0  0  0  0  0  0  0  0
    0.5353    1.2320   -0.4236 C   0  0  0  0  0  0  0  0  0  0  0  0
   -0.3620    2.2532   -0.7820 C   0  0  0  0  0  0  0  0  0  0  0  0
   -1.6533    2.1707   -0.2802 C   0  0  0  0  0  0  0  0  0  0  0  0
   -2.0173    1.0973    0.5436 C   0  0  0  0  0  0  0  0  0  0  0  0
   -1.3939   -0.7249    1.5186 H   0  0  0  0  0  0  0  0  0  0  0  0
    0.9776   -0.5849    0.6241 H   0  0  0  0  0  0  0  0  0  0  0  0
   -0.0456    3.0730   -1.4169 H   0  0  0  0  0  0  0  0  0  0  0  0
   -2.3742    2.9420   -0.5285 H   0  0  0  0  0  0  0  0  0  0  0  0
    1.8122    1.3232   -0.9621 N   0  0  0  0  0  0  0  0  0  0  0  0
    2.7552    1.4728   -1.5297 N   0  0  0  0  0  0  0  0  0  0  0  0
    3.5050    0.0990    1.2403 B   0  0  0  0  0  0  0  0  0  0  0  0
    4.7435    0.5049    0.7774 F   0  0  0  0  0  0  0  0  0  0  0  0
    3.5505   -0.5863    2.4315 F   0  0  0  0  0  0  0  0  0  0  0  0
    2.6460    1.2441    1.3573 F   0  0  0  0  0  0  0  0  0  0  0  0
    2.8808   -0.7286    0.2268 F   0  0  0  0  0  0  0  0  0  0  0  0
   -3.0293    1.0450    0.9327 H   0  0  0  0  0  0  0  0  0  0  0  0
  1  7  1  0  0  0  0
  2  8  1  0  0  0  0
  2  1  2  0  0  0  0
  3  2  1  0  0  0  0
  4  3  2  0  0  0  0
  4  5  1  0  0  0  0
  5  6  2  0  0  0  0
  6  1  1  0  0  0  0
  6 18  1  0  0  0  0
  9  4  1  0  0  0  0
 10  5  1  0  0  0  0
 11  3  1  0  0  0  0
 12 11  1  0  0  0  0
 13 16  1  0  0  0  0
 13 15  1  0  0  0  0
 14 13  1  0  0  0  0
 17 13  1  0  0  0  0
M  RAD  2  11   2  12   3
M  END
