Coordinates from ORCA-job Ph-N2-BF4-B3LYPG-6-31G_dp-scan-d09-49-n400
 OpenBabel08281821203D

 18 17  0  0  0  0  0  0  0  0999 V2000
   -1.0139    0.2867    1.1613 C   0  0  0  0  0  0  0  0  0  0  0  0
    0.2432    0.2684    0.5644 C   0  0  0  0  0  0  0  0  0  0  0  0
    0.4542    1.1966   -0.4671 C   0  0  0  0  0  0  0  0  0  0  0  0
   -0.5096    2.1193   -0.9170 C   0  0  0  0  0  0  0  0  0  0  0  0
   -1.7445    2.1080   -0.2873 C   0  0  0  0  0  0  0  0  0  0  0  0
   -1.9923    1.1953    0.7482 C   0  0  0  0  0  0  0  0  0  0  0  0
   -1.2224   -0.4094    1.9666 H   0  0  0  0  0  0  0  0  0  0  0  0
    1.0483   -0.4051    0.8554 H   0  0  0  0  0  0  0  0  0  0  0  0
   -0.2820    2.8115   -1.7199 H   0  0  0  0  0  0  0  0  0  0  0  0
   -2.5126    2.8069   -0.5998 H   0  0  0  0  0  0  0  0  0  0  0  0
    1.6714    1.2146   -1.1307 N   0  0  0  0  0  0  0  0  0  0  0  0
    2.5764    1.2734   -1.7766 N   0  0  0  0  0  0  0  0  0  0  0  0
    3.6170    0.0764    1.1003 B   0  0  0  0  0  0  0  0  0  0  0  0
    4.3610   -0.1485    2.2398 F   0  0  0  0  0  0  0  0  0  0  0  0
    2.7993   -1.0583    0.7955 F   0  0  0  0  0  0  0  0  0  0  0  0
    2.7156    1.1773    1.2724 F   0  0  0  0  0  0  0  0  0  0  0  0
    4.3934    0.3656   -0.0362 F   0  0  0  0  0  0  0  0  0  0  0  0
   -2.9619    1.1972    1.2366 H   0  0  0  0  0  0  0  0  0  0  0  0
  1  7  1  0  0  0  0
  2  8  1  0  0  0  0
  2  1  2  0  0  0  0
  3  2  1  0  0  0  0
  4  3  2  0  0  0  0
  4  5  1  0  0  0  0
  5  6  2  0  0  0  0
  6  1  1  0  0  0  0
  6 18  1  0  0  0  0
  9  4  1  0  0  0  0
 10  5  1  0  0  0  0
 11  3  1  0  0  0  0
 12 11  1  0  0  0  0
 13 16  1  0  0  0  0
 13 14  1  0  0  0  0
 15 13  1  0  0  0  0
 17 13  1  0  0  0  0
M  RAD  2  11   2  12   3
M  END
