Coordinates from ORCA-job Ph-N2-BF4-B3LYPG-6-31G_dp-scan-d09-49-n400
 OpenBabel08281821203D

 18 17  0  0  0  0  0  0  0  0999 V2000
   -1.0612    0.0953    0.8931 C   0  0  0  0  0  0  0  0  0  0  0  0
    0.2350    0.1531    0.3946 C   0  0  0  0  0  0  0  0  0  0  0  0
    0.5386    1.2363   -0.4424 C   0  0  0  0  0  0  0  0  0  0  0  0
   -0.3738    2.2483   -0.7886 C   0  0  0  0  0  0  0  0  0  0  0  0
   -1.6550    2.1580   -0.2632 C   0  0  0  0  0  0  0  0  0  0  0  0
   -1.9951    1.0862    0.5728 C   0  0  0  0  0  0  0  0  0  0  0  0
   -1.3376   -0.7247    1.5470 H   0  0  0  0  0  0  0  0  0  0  0  0
    1.0122   -0.5729    0.6089 H   0  0  0  0  0  0  0  0  0  0  0  0
   -0.0758    3.0674   -1.4333 H   0  0  0  0  0  0  0  0  0  0  0  0
   -2.3866    2.9221   -0.5025 H   0  0  0  0  0  0  0  0  0  0  0  0
    1.8036    1.3357   -1.0063 N   0  0  0  0  0  0  0  0  0  0  0  0
    2.7356    1.4860   -1.5909 N   0  0  0  0  0  0  0  0  0  0  0  0
    3.4797    0.1041    1.2428 B   0  0  0  0  0  0  0  0  0  0  0  0
    4.8003    0.3847    0.9664 F   0  0  0  0  0  0  0  0  0  0  0  0
    3.2842   -0.5917    2.4168 F   0  0  0  0  0  0  0  0  0  0  0  0
    2.7177    1.3214    1.2666 F   0  0  0  0  0  0  0  0  0  0  0  0
    2.9182   -0.6607    0.1438 F   0  0  0  0  0  0  0  0  0  0  0  0
   -2.9994    1.0275    0.9804 H   0  0  0  0  0  0  0  0  0  0  0  0
  1  7  1  0  0  0  0
  2  8  1  0  0  0  0
  2  1  2  0  0  0  0
  3  2  1  0  0  0  0
  4  3  2  0  0  0  0
  4  5  1  0  0  0  0
  5  6  2  0  0  0  0
  6  1  1  0  0  0  0
  6 18  1  0  0  0  0
  9  4  1  0  0  0  0
 10  5  1  0  0  0  0
 11  3  1  0  0  0  0
 12 11  1  0  0  0  0
 13 16  1  0  0  0  0
 13 15  1  0  0  0  0
 14 13  1  0  0  0  0
 17 13  1  0  0  0  0
M  RAD  2  11   2  12   3
M  END
