Coordinates from ORCA-job Ph-N2-BF4-B3LYPG-6-31G_dp-scan-d09-49-n400
 OpenBabel08281821203D

 18 17  0  0  0  0  0  0  0  0999 V2000
   -0.9977    0.2801    1.0901 C   0  0  0  0  0  0  0  0  0  0  0  0
    0.2984    0.4133    0.5986 C   0  0  0  0  0  0  0  0  0  0  0  0
    0.4863    1.3846   -0.4002 C   0  0  0  0  0  0  0  0  0  0  0  0
   -0.5380    2.2009   -0.9116 C   0  0  0  0  0  0  0  0  0  0  0  0
   -1.8132    2.0346   -0.3923 C   0  0  0  0  0  0  0  0  0  0  0  0
   -2.0389    1.0768    0.6058 C   0  0  0  0  0  0  0  0  0  0  0  0
   -1.1879   -0.4535    1.8663 H   0  0  0  0  0  0  0  0  0  0  0  0
    1.1244   -0.1891    0.9760 H   0  0  0  0  0  0  0  0  0  0  0  0
   -0.3252    2.9320   -1.6837 H   0  0  0  0  0  0  0  0  0  0  0  0
   -2.6287    2.6469   -0.7610 H   0  0  0  0  0  0  0  0  0  0  0  0
    1.7518    1.5518   -0.9373 N   0  0  0  0  0  0  0  0  0  0  0  0
    2.8045    1.5897   -1.2995 N   0  0  0  0  0  0  0  0  0  0  0  0
    3.5847   -0.0773    1.0755 B   0  0  0  0  0  0  0  0  0  0  0  0
    4.8719   -0.1461    1.5256 F   0  0  0  0  0  0  0  0  0  0  0  0
    2.7194   -0.9937    1.7124 F   0  0  0  0  0  0  0  0  0  0  0  0
    3.0411    1.2254    1.2635 F   0  0  0  0  0  0  0  0  0  0  0  0
    3.5266   -0.3546   -0.3316 F   0  0  0  0  0  0  0  0  0  0  0  0
   -3.0392    0.9541    1.0092 H   0  0  0  0  0  0  0  0  0  0  0  0
  1  7  1  0  0  0  0
  2  8  1  0  0  0  0
  2  1  2  0  0  0  0
  3  2  1  0  0  0  0
  4  3  2  0  0  0  0
  4  5  1  0  0  0  0
  5  6  2  0  0  0  0
  6 18  1  0  0  0  0
  6  1  1  0  0  0  0
  9  4  1  0  0  0  0
 10  5  1  0  0  0  0
 11  3  1  0  0  0  0
 12 11  1  0  0  0  0
 13 16  1  0  0  0  0
 13 14  1  0  0  0  0
 13 15  1  0  0  0  0
 17 13  1  0  0  0  0
M  RAD  2  11   2  12   3
M  END
