Coordinates from ORCA-job Ph-N2-BF4-B3LYPG-6-31G_dp-scan-d09-49-n400
 OpenBabel08281821203D

 18 17  0  0  0  0  0  0  0  0999 V2000
   -0.5460   -0.1767    0.4876 C   0  0  0  0  0  0  0  0  0  0  0  0
    0.4914   -0.0494   -0.4395 C   0  0  0  0  0  0  0  0  0  0  0  0
    0.7693    1.2012   -1.0151 C   0  0  0  0  0  0  0  0  0  0  0  0
   -0.0115    2.3095   -0.6649 C   0  0  0  0  0  0  0  0  0  0  0  0
   -1.0372    2.1773    0.2706 C   0  0  0  0  0  0  0  0  0  0  0  0
   -1.3078    0.9366    0.8513 C   0  0  0  0  0  0  0  0  0  0  0  0
   -0.7602   -1.1487    0.9219 H   0  0  0  0  0  0  0  0  0  0  0  0
    1.0675   -0.9206   -0.7365 H   0  0  0  0  0  0  0  0  0  0  0  0
    0.1969    3.2664   -1.1327 H   0  0  0  0  0  0  0  0  0  0  0  0
   -1.6303    3.0457    0.5422 H   0  0  0  0  0  0  0  0  0  0  0  0
    1.7584    1.3627   -2.0491 N   0  0  0  0  0  0  0  0  0  0  0  0
    2.9791    1.1977   -1.7196 N   0  0  0  0  0  0  0  0  0  0  0  0
    2.1263    0.2645    2.2091 B   0  0  0  0  0  0  0  0  0  0  0  0
    3.2127    0.9832   -0.7604 F   0  0  0  0  0  0  0  0  0  0  0  0
    2.8751   -0.5981    1.5412 F   0  0  0  0  0  0  0  0  0  0  0  0
    2.2739    1.5571    1.9902 F   0  0  0  0  0  0  0  0  0  0  0  0
    1.2954   -0.1661    3.1365 F   0  0  0  0  0  0  0  0  0  0  0  0
   -2.1125    0.8336    1.5730 H   0  0  0  0  0  0  0  0  0  0  0  0
  1  6  1  0  0  0  0
  1  7  1  0  0  0  0
  2  1  2  0  0  0  0
  3  4  2  0  0  0  0
  3  2  1  0  0  0  0
  4  5  1  0  0  0  0
  5 10  1  0  0  0  0
  5  6  2  0  0  0  0
  6 18  1  0  0  0  0
  8  2  1  0  0  0  0
  9  4  1  0  0  0  0
 11 12  2  0  0  0  0
 11  3  1  0  0  0  0
 12 14  1  0  0  0  0
 13 17  1  0  0  0  0
 15 13  1  0  0  0  0
 16 13  1  0  0  0  0
M  END
