Coordinates from ORCA-job Ph-N2-BF4-B3LYPG-6-31G_dp-scan-d09-49-n400
 OpenBabel08281821203D

 18 17  0  0  0  0  0  0  0  0999 V2000
   -0.5439   -0.1758    0.4848 C   0  0  0  0  0  0  0  0  0  0  0  0
    0.4946   -0.0475   -0.4407 C   0  0  0  0  0  0  0  0  0  0  0  0
    0.7681    1.2041   -1.0145 C   0  0  0  0  0  0  0  0  0  0  0  0
   -0.0135    2.3118   -0.6678 C   0  0  0  0  0  0  0  0  0  0  0  0
   -1.0372    2.1785    0.2699 C   0  0  0  0  0  0  0  0  0  0  0  0
   -1.3063    0.9370    0.8493 C   0  0  0  0  0  0  0  0  0  0  0  0
   -0.7579   -1.1482    0.9180 H   0  0  0  0  0  0  0  0  0  0  0  0
    1.0742   -0.9164   -0.7364 H   0  0  0  0  0  0  0  0  0  0  0  0
    0.1926    3.2685   -1.1369 H   0  0  0  0  0  0  0  0  0  0  0  0
   -1.6307    3.0462    0.5424 H   0  0  0  0  0  0  0  0  0  0  0  0
    1.7503    1.3675   -2.0548 N   0  0  0  0  0  0  0  0  0  0  0  0
    2.9668    1.2022   -1.7579 N   0  0  0  0  0  0  0  0  0  0  0  0
    2.1288    0.2615    2.2203 B   0  0  0  0  0  0  0  0  0  0  0  0
    3.2198    0.9714   -0.7437 F   0  0  0  0  0  0  0  0  0  0  0  0
    2.8757   -0.6040    1.5555 F   0  0  0  0  0  0  0  0  0  0  0  0
    2.2765    1.5539    2.0021 F   0  0  0  0  0  0  0  0  0  0  0  0
    1.2934   -0.1673    3.1456 F   0  0  0  0  0  0  0  0  0  0  0  0
   -2.1110    0.8327    1.5706 H   0  0  0  0  0  0  0  0  0  0  0  0
  1  6  1  0  0  0  0
  1  7  1  0  0  0  0
  2  1  2  0  0  0  0
  3  4  2  0  0  0  0
  3  2  1  0  0  0  0
  4  5  1  0  0  0  0
  5 10  1  0  0  0  0
  5  6  2  0  0  0  0
  6 18  1  0  0  0  0
  8  2  1  0  0  0  0
  9  4  1  0  0  0  0
 11 12  2  0  0  0  0
 11  3  1  0  0  0  0
 12 14  1  0  0  0  0
 13 17  1  0  0  0  0
 15 13  1  0  0  0  0
 16 13  1  0  0  0  0
M  END
