Coordinates from ORCA-job Ph-N2-BF4-B3LYPG-6-31G_dp-scan-d09-49-n400
 OpenBabel08281821203D

 18 17  0  0  0  0  0  0  0  0999 V2000
   -1.0004    0.1867    1.0131 C   0  0  0  0  0  0  0  0  0  0  0  0
    0.3039    0.2931    0.5417 C   0  0  0  0  0  0  0  0  0  0  0  0
    0.5511    1.3147   -0.3892 C   0  0  0  0  0  0  0  0  0  0  0  0
   -0.4313    2.2082   -0.8558 C   0  0  0  0  0  0  0  0  0  0  0  0
   -1.7189    2.0663   -0.3600 C   0  0  0  0  0  0  0  0  0  0  0  0
   -1.9997    1.0593    0.5726 C   0  0  0  0  0  0  0  0  0  0  0  0
   -1.2317   -0.5857    1.7386 H   0  0  0  0  0  0  0  0  0  0  0  0
    1.1012   -0.3667    0.8609 H   0  0  0  0  0  0  0  0  0  0  0  0
   -0.1783    2.9802   -1.5742 H   0  0  0  0  0  0  0  0  0  0  0  0
   -2.5002    2.7386   -0.6970 H   0  0  0  0  0  0  0  0  0  0  0  0
    1.8202    1.4931   -0.9229 N   0  0  0  0  0  0  0  0  0  0  0  0
    2.7751    1.7084   -1.4457 N   0  0  0  0  0  0  0  0  0  0  0  0
    3.4724   -0.0072    1.1434 B   0  0  0  0  0  0  0  0  0  0  0  0
    4.8409    0.0610    1.0970 F   0  0  0  0  0  0  0  0  0  0  0  0
    2.9624   -0.8056    2.1629 F   0  0  0  0  0  0  0  0  0  0  0  0
    2.9136    1.3063    1.2657 F   0  0  0  0  0  0  0  0  0  0  0  0
    2.9693   -0.5323   -0.1044 F   0  0  0  0  0  0  0  0  0  0  0  0
   -3.0090    0.9576    0.9592 H   0  0  0  0  0  0  0  0  0  0  0  0
  1  7  1  0  0  0  0
  2  8  1  0  0  0  0
  2  1  2  0  0  0  0
  3  2  1  0  0  0  0
  4  3  2  0  0  0  0
  4  5  1  0  0  0  0
  5  6  2  0  0  0  0
  6 18  1  0  0  0  0
  6  1  1  0  0  0  0
  9  4  1  0  0  0  0
 10  5  1  0  0  0  0
 11  3  1  0  0  0  0
 12 11  1  0  0  0  0
 13 16  1  0  0  0  0
 13 15  1  0  0  0  0
 14 13  1  0  0  0  0
 17 13  1  0  0  0  0
M  RAD  2  11   2  12   3
M  END
