Coordinates from ORCA-job Ph-N2-BF4-B3LYPG-6-31G_dp-scan-d09-49-n400
 OpenBabel08281821203D

 18 17  0  0  0  0  0  0  0  0999 V2000
   -1.1402    0.1123    0.8613 C   0  0  0  0  0  0  0  0  0  0  0  0
    0.1832    0.1701    0.4382 C   0  0  0  0  0  0  0  0  0  0  0  0
    0.5330    1.2542   -0.3791 C   0  0  0  0  0  0  0  0  0  0  0  0
   -0.3589    2.2650   -0.7793 C   0  0  0  0  0  0  0  0  0  0  0  0
   -1.6674    2.1752   -0.3268 C   0  0  0  0  0  0  0  0  0  0  0  0
   -2.0540    1.1032    0.4891 C   0  0  0  0  0  0  0  0  0  0  0  0
   -1.4551   -0.7092    1.4958 H   0  0  0  0  0  0  0  0  0  0  0  0
    0.9486   -0.5568    0.6922 H   0  0  0  0  0  0  0  0  0  0  0  0
   -0.0250    3.0828   -1.4082 H   0  0  0  0  0  0  0  0  0  0  0  0
   -2.3848    2.9384   -0.6081 H   0  0  0  0  0  0  0  0  0  0  0  0
    1.8294    1.3518   -0.8677 N   0  0  0  0  0  0  0  0  0  0  0  0
    2.7998    1.5076   -1.3875 N   0  0  0  0  0  0  0  0  0  0  0  0
    3.5399    0.0576    1.2199 B   0  0  0  0  0  0  0  0  0  0  0  0
    4.6004    0.5830    0.4808 F   0  0  0  0  0  0  0  0  0  0  0  0
    3.9359   -0.5577    2.3795 F   0  0  0  0  0  0  0  0  0  0  0  0
    2.6137    1.1167    1.4925 F   0  0  0  0  0  0  0  0  0  0  0  0
    2.8220   -0.8626    0.3747 F   0  0  0  0  0  0  0  0  0  0  0  0
   -3.0800    1.0442    0.8387 H   0  0  0  0  0  0  0  0  0  0  0  0
  1  7  1  0  0  0  0
  2  8  1  0  0  0  0
  2  1  2  0  0  0  0
  3  2  1  0  0  0  0
  4  3  2  0  0  0  0
  4  5  1  0  0  0  0
  5  6  2  0  0  0  0
  6 18  1  0  0  0  0
  6  1  1  0  0  0  0
  9  4  1  0  0  0  0
 10  5  1  0  0  0  0
 11  3  1  0  0  0  0
 12 11  1  0  0  0  0
 13 16  1  0  0  0  0
 13 15  1  0  0  0  0
 14 13  1  0  0  0  0
 17 13  1  0  0  0  0
M  RAD  2  11   2  12   3
M  END
