Coordinates from ORCA-job Ph-N2-BF4-B3LYPG-6-31G_dp-scan-d09-49-n400
 OpenBabel08281821203D

 18 17  0  0  0  0  0  0  0  0999 V2000
   -1.0102    0.2862    1.1605 C   0  0  0  0  0  0  0  0  0  0  0  0
    0.2457    0.2689    0.5609 C   0  0  0  0  0  0  0  0  0  0  0  0
    0.4539    1.1979   -0.4704 C   0  0  0  0  0  0  0  0  0  0  0  0
   -0.5112    2.1208   -0.9177 C   0  0  0  0  0  0  0  0  0  0  0  0
   -1.7446    2.1084   -0.2854 C   0  0  0  0  0  0  0  0  0  0  0  0
   -1.9898    1.1947    0.7500 C   0  0  0  0  0  0  0  0  0  0  0  0
   -1.2166   -0.4105    1.9658 H   0  0  0  0  0  0  0  0  0  0  0  0
    1.0525   -0.4036    0.8501 H   0  0  0  0  0  0  0  0  0  0  0  0
   -0.2855    2.8138   -1.7205 H   0  0  0  0  0  0  0  0  0  0  0  0
   -2.5137    2.8072   -0.5956 H   0  0  0  0  0  0  0  0  0  0  0  0
    1.6693    1.2166   -1.1372 N   0  0  0  0  0  0  0  0  0  0  0  0
    2.5698    1.2771   -1.7892 N   0  0  0  0  0  0  0  0  0  0  0  0
    3.6161    0.0745    1.1044 B   0  0  0  0  0  0  0  0  0  0  0  0
    4.3502   -0.1466    2.2515 F   0  0  0  0  0  0  0  0  0  0  0  0
    2.7983   -1.0606    0.7994 F   0  0  0  0  0  0  0  0  0  0  0  0
    2.7143    1.1778    1.2653 F   0  0  0  0  0  0  0  0  0  0  0  0
    4.4003    0.3577   -0.0267 F   0  0  0  0  0  0  0  0  0  0  0  0
   -2.9584    1.1959    1.2405 H   0  0  0  0  0  0  0  0  0  0  0  0
  1  7  1  0  0  0  0
  2  8  1  0  0  0  0
  2  1  2  0  0  0  0
  3  2  1  0  0  0  0
  4  3  2  0  0  0  0
  4  5  1  0  0  0  0
  5  6  2  0  0  0  0
  6  1  1  0  0  0  0
  6 18  1  0  0  0  0
  9  4  1  0  0  0  0
 10  5  1  0  0  0  0
 11  3  1  0  0  0  0
 12 11  1  0  0  0  0
 13 16  1  0  0  0  0
 13 14  1  0  0  0  0
 15 13  1  0  0  0  0
 17 13  1  0  0  0  0
M  RAD  2  11   2  12   3
M  END
