Coordinates from ORCA-job Ph-N2-BF4-B3LYPG-6-31G_dp-scan-d09-49-n400
 OpenBabel08281821203D

 18 17  0  0  0  0  0  0  0  0999 V2000
   -1.1092    0.1170    0.7654 C   0  0  0  0  0  0  0  0  0  0  0  0
    0.2248    0.2677    0.3983 C   0  0  0  0  0  0  0  0  0  0  0  0
    0.5414    1.3972   -0.3744 C   0  0  0  0  0  0  0  0  0  0  0  0
   -0.4015    2.3567   -0.7807 C   0  0  0  0  0  0  0  0  0  0  0  0
   -1.7196    2.1763   -0.3860 C   0  0  0  0  0  0  0  0  0  0  0  0
   -2.0694    1.0587    0.3833 C   0  0  0  0  0  0  0  0  0  0  0  0
   -1.3958   -0.7420    1.3627 H   0  0  0  0  0  0  0  0  0  0  0  0
    1.0003   -0.4372    0.6914 H   0  0  0  0  0  0  0  0  0  0  0  0
   -0.0942    3.2091   -1.3762 H   0  0  0  0  0  0  0  0  0  0  0  0
   -2.4726    2.9008   -0.6764 H   0  0  0  0  0  0  0  0  0  0  0  0
    1.8501    1.5837   -0.7917 N   0  0  0  0  0  0  0  0  0  0  0  0
    2.9383    1.6154   -1.0615 N   0  0  0  0  0  0  0  0  0  0  0  0
    3.5071   -0.0831    1.2796 B   0  0  0  0  0  0  0  0  0  0  0  0
    3.9691    0.1944   -0.0768 F   0  0  0  0  0  0  0  0  0  0  0  0
    4.5785   -0.2572    2.1063 F   0  0  0  0  0  0  0  0  0  0  0  0
    2.7096    1.0207    1.6486 F   0  0  0  0  0  0  0  0  0  0  0  0
    2.6863   -1.2259    1.2062 F   0  0  0  0  0  0  0  0  0  0  0  0
   -3.1026    0.9237    0.6880 H   0  0  0  0  0  0  0  0  0  0  0  0
  1  7  1  0  0  0  0
  2  8  1  0  0  0  0
  2  1  1  0  0  0  0
  3  2  2  0  0  0  0
  4  5  2  0  0  0  0
  4  3  1  0  0  0  0
  5  6  1  0  0  0  0
  6 18  1  0  0  0  0
  6  1  2  0  0  0  0
  9  4  1  0  0  0  0
 10  5  1  0  0  0  0
 11  3  1  0  0  0  0
 12 11  1  0  0  0  0
 13 16  1  0  0  0  0
 13 15  1  0  0  0  0
 14 13  1  0  0  0  0
 17 13  1  0  0  0  0
M  RAD  2  11   2  12   3
M  END
