Coordinates from ORCA-job Ph-N2-BF4-B3LYPG-6-31G_dp-scan-d09-49-n400
 OpenBabel08281821203D

 18 17  0  0  0  0  0  0  0  0999 V2000
   -1.1217    0.1254    0.8210 C   0  0  0  0  0  0  0  0  0  0  0  0
    0.2112    0.2484    0.4402 C   0  0  0  0  0  0  0  0  0  0  0  0
    0.5300    1.3561   -0.3598 C   0  0  0  0  0  0  0  0  0  0  0  0
   -0.3988    2.3249   -0.7822 C   0  0  0  0  0  0  0  0  0  0  0  0
   -1.7138    2.1695   -0.3700 C   0  0  0  0  0  0  0  0  0  0  0  0
   -2.0711    1.0732    0.4277 C   0  0  0  0  0  0  0  0  0  0  0  0
   -1.4158   -0.7157    1.4396 H   0  0  0  0  0  0  0  0  0  0  0  0
    0.9957   -0.4510    0.7271 H   0  0  0  0  0  0  0  0  0  0  0  0
   -0.0863    3.1602   -1.3990 H   0  0  0  0  0  0  0  0  0  0  0  0
   -2.4593    2.8983   -0.6686 H   0  0  0  0  0  0  0  0  0  0  0  0
    1.8328    1.5130   -0.8105 N   0  0  0  0  0  0  0  0  0  0  0  0
    2.8319    1.6789   -1.2724 N   0  0  0  0  0  0  0  0  0  0  0  0
    3.5539   -0.0657    1.2375 B   0  0  0  0  0  0  0  0  0  0  0  0
    4.3882    0.3057    0.1640 F   0  0  0  0  0  0  0  0  0  0  0  0
    4.2649   -0.3881    2.3639 F   0  0  0  0  0  0  0  0  0  0  0  0
    2.6683    1.0330    1.4909 F   0  0  0  0  0  0  0  0  0  0  0  0
    2.7335   -1.1514    0.8111 F   0  0  0  0  0  0  0  0  0  0  0  0
   -3.1031    0.9612    0.7454 H   0  0  0  0  0  0  0  0  0  0  0  0
  1  7  1  0  0  0  0
  2  8  1  0  0  0  0
  2  1  1  0  0  0  0
  3  2  2  0  0  0  0
  4  5  2  0  0  0  0
  4  3  1  0  0  0  0
  5  6  1  0  0  0  0
  6 18  1  0  0  0  0
  6  1  2  0  0  0  0
  9  4  1  0  0  0  0
 10  5  1  0  0  0  0
 11  3  1  0  0  0  0
 12 11  1  0  0  0  0
 13 16  1  0  0  0  0
 13 15  1  0  0  0  0
 14 13  1  0  0  0  0
 17 13  1  0  0  0  0
M  RAD  2  11   2  12   3
M  END
