Coordinates from ORCA-job Ph-N2-BF4-B3LYPG-6-31G_dp-scan-d09-49-n400
 OpenBabel08281821203D

 18 17  0  0  0  0  0  0  0  0999 V2000
   -1.0405    0.1052    0.9129 C   0  0  0  0  0  0  0  0  0  0  0  0
    0.2526    0.1689    0.4072 C   0  0  0  0  0  0  0  0  0  0  0  0
    0.5415    1.2447   -0.4451 C   0  0  0  0  0  0  0  0  0  0  0  0
   -0.3840    2.2418   -0.8004 C   0  0  0  0  0  0  0  0  0  0  0  0
   -1.6620    2.1450   -0.2687 C   0  0  0  0  0  0  0  0  0  0  0  0
   -1.9866    1.0814    0.5837 C   0  0  0  0  0  0  0  0  0  0  0  0
   -1.3049   -0.7086    1.5794 H   0  0  0  0  0  0  0  0  0  0  0  0
    1.0349   -0.5492    0.6281 H   0  0  0  0  0  0  0  0  0  0  0  0
   -0.0977    3.0553   -1.4576 H   0  0  0  0  0  0  0  0  0  0  0  0
   -2.4029    2.8977   -0.5155 H   0  0  0  0  0  0  0  0  0  0  0  0
    1.8033    1.3554   -1.0131 N   0  0  0  0  0  0  0  0  0  0  0  0
    2.7379    1.5133   -1.5912 N   0  0  0  0  0  0  0  0  0  0  0  0
    3.4666    0.0942    1.2338 B   0  0  0  0  0  0  0  0  0  0  0  0
    4.8098    0.3222    1.0429 F   0  0  0  0  0  0  0  0  0  0  0  0
    3.1673   -0.6218    2.3768 F   0  0  0  0  0  0  0  0  0  0  0  0
    2.7546    1.3398    1.2461 F   0  0  0  0  0  0  0  0  0  0  0  0
    2.9389   -0.6268    0.0897 F   0  0  0  0  0  0  0  0  0  0  0  0
   -2.9883    1.0175    0.9969 H   0  0  0  0  0  0  0  0  0  0  0  0
  1  7  1  0  0  0  0
  2  8  1  0  0  0  0
  2  1  2  0  0  0  0
  3  2  1  0  0  0  0
  4  3  2  0  0  0  0
  4  5  1  0  0  0  0
  5  6  2  0  0  0  0
  6  1  1  0  0  0  0
  6 18  1  0  0  0  0
  9  4  1  0  0  0  0
 10  5  1  0  0  0  0
 11  3  1  0  0  0  0
 12 11  1  0  0  0  0
 13 16  1  0  0  0  0
 13 15  1  0  0  0  0
 14 13  1  0  0  0  0
 17 13  1  0  0  0  0
M  RAD  2  11   2  12   3
M  END
