Coordinates from ORCA-job Ph-N2-BF4-B3LYPG-6-31G_dp-scan-d09-49-n400
 OpenBabel08281821203D

 18 17  0  0  0  0  0  0  0  0999 V2000
   -1.0495    0.2993    1.1638 C   0  0  0  0  0  0  0  0  0  0  0  0
    0.2313    0.3159    0.6191 C   0  0  0  0  0  0  0  0  0  0  0  0
    0.4583    1.2412   -0.4111 C   0  0  0  0  0  0  0  0  0  0  0  0
   -0.5134    2.1298   -0.9069 C   0  0  0  0  0  0  0  0  0  0  0  0
   -1.7732    2.0863   -0.3288 C   0  0  0  0  0  0  0  0  0  0  0  0
   -2.0375    1.1734    0.7018 C   0  0  0  0  0  0  0  0  0  0  0  0
   -1.2709   -0.3994    1.9635 H   0  0  0  0  0  0  0  0  0  0  0  0
    1.0405   -0.3350    0.9461 H   0  0  0  0  0  0  0  0  0  0  0  0
   -0.2740    2.8215   -1.7070 H   0  0  0  0  0  0  0  0  0  0  0  0
   -2.5485    2.7587   -0.6793 H   0  0  0  0  0  0  0  0  0  0  0  0
    1.7010    1.2787   -1.0258 N   0  0  0  0  0  0  0  0  0  0  0  0
    2.6547    1.3219   -1.5999 N   0  0  0  0  0  0  0  0  0  0  0  0
    3.6428    0.0390    1.0506 B   0  0  0  0  0  0  0  0  0  0  0  0
    4.5426   -0.1410    2.0701 F   0  0  0  0  0  0  0  0  0  0  0  0
    2.7719   -1.0808    0.9218 F   0  0  0  0  0  0  0  0  0  0  0  0
    2.8121    1.1779    1.2803 F   0  0  0  0  0  0  0  0  0  0  0  0
    4.2794    0.2420   -0.1997 F   0  0  0  0  0  0  0  0  0  0  0  0
   -3.0272    1.1468    1.1473 H   0  0  0  0  0  0  0  0  0  0  0  0
  1  7  1  0  0  0  0
  2  8  1  0  0  0  0
  2  1  2  0  0  0  0
  3  2  1  0  0  0  0
  4  3  2  0  0  0  0
  4  5  1  0  0  0  0
  5  6  2  0  0  0  0
  6 18  1  0  0  0  0
  6  1  1  0  0  0  0
  9  4  1  0  0  0  0
 10  5  1  0  0  0  0
 11  3  1  0  0  0  0
 12 11  1  0  0  0  0
 13 16  1  0  0  0  0
 13 14  1  0  0  0  0
 15 13  1  0  0  0  0
 17 13  1  0  0  0  0
M  RAD  2  11   2  12   3
M  END
