Coordinates from ORCA-job Ph-N2-BF4-B3LYPG-6-31G_dp-scan-d09-49-n400
 OpenBabel08281821203D

 18 17  0  0  0  0  0  0  0  0999 V2000
   -1.0161    0.2743    1.0985 C   0  0  0  0  0  0  0  0  0  0  0  0
    0.2757    0.3759    0.5894 C   0  0  0  0  0  0  0  0  0  0  0  0
    0.4768    1.3454   -0.4077 C   0  0  0  0  0  0  0  0  0  0  0  0
   -0.5307    2.1938   -0.9007 C   0  0  0  0  0  0  0  0  0  0  0  0
   -1.8019    2.0611   -0.3623 C   0  0  0  0  0  0  0  0  0  0  0  0
   -2.0405    1.1039    0.6336 C   0  0  0  0  0  0  0  0  0  0  0  0
   -1.2167   -0.4586    1.8727 H   0  0  0  0  0  0  0  0  0  0  0  0
    1.0979   -0.2472    0.9433 H   0  0  0  0  0  0  0  0  0  0  0  0
   -0.3089    2.9228   -1.6723 H   0  0  0  0  0  0  0  0  0  0  0  0
   -2.6050    2.6986   -0.7150 H   0  0  0  0  0  0  0  0  0  0  0  0
    1.7354    1.4727   -0.9720 N   0  0  0  0  0  0  0  0  0  0  0  0
    2.7592    1.5089   -1.4097 N   0  0  0  0  0  0  0  0  0  0  0  0
    3.6038   -0.0439    1.0765 B   0  0  0  0  0  0  0  0  0  0  0  0
    4.8121   -0.0713    1.7136 F   0  0  0  0  0  0  0  0  0  0  0  0
    2.7126   -1.0358    1.5534 F   0  0  0  0  0  0  0  0  0  0  0  0
    2.9610    1.2171    1.2445 F   0  0  0  0  0  0  0  0  0  0  0  0
    3.7643   -0.2492   -0.3301 F   0  0  0  0  0  0  0  0  0  0  0  0
   -3.0384    1.0074    1.0503 H   0  0  0  0  0  0  0  0  0  0  0  0
  1  7  1  0  0  0  0
  2  8  1  0  0  0  0
  2  1  2  0  0  0  0
  3  2  1  0  0  0  0
  4  3  2  0  0  0  0
  4  5  1  0  0  0  0
  5  6  2  0  0  0  0
  6 18  1  0  0  0  0
  6  1  1  0  0  0  0
  9  4  1  0  0  0  0
 10  5  1  0  0  0  0
 11  3  1  0  0  0  0
 12 11  1  0  0  0  0
 13 16  1  0  0  0  0
 13 15  1  0  0  0  0
 13 14  1  0  0  0  0
 17 13  1  0  0  0  0
M  RAD  2  11   2  12   3
M  END
