Coordinates from ORCA-job Ph-N2-BF4-B3LYPG-6-31G_dp-scan-d09-49-n400
 OpenBabel08281821203D

 18 17  0  0  0  0  0  0  0  0999 V2000
   -1.1250    0.1081    0.8691 C   0  0  0  0  0  0  0  0  0  0  0  0
    0.1913    0.1588    0.4245 C   0  0  0  0  0  0  0  0  0  0  0  0
    0.5339    1.2410   -0.3983 C   0  0  0  0  0  0  0  0  0  0  0  0
   -0.3582    2.2572   -0.7836 C   0  0  0  0  0  0  0  0  0  0  0  0
   -1.6598    2.1745   -0.3100 C   0  0  0  0  0  0  0  0  0  0  0  0
   -2.0390    1.1048    0.5122 C   0  0  0  0  0  0  0  0  0  0  0  0
   -1.4339   -0.7109    1.5097 H   0  0  0  0  0  0  0  0  0  0  0  0
    0.9576   -0.5704    0.6669 H   0  0  0  0  0  0  0  0  0  0  0  0
   -0.0297    3.0736   -1.4170 H   0  0  0  0  0  0  0  0  0  0  0  0
   -2.3771    2.9421   -0.5791 H   0  0  0  0  0  0  0  0  0  0  0  0
    1.8233    1.3342   -0.9054 N   0  0  0  0  0  0  0  0  0  0  0  0
    2.7830    1.4903   -1.4436 N   0  0  0  0  0  0  0  0  0  0  0  0
    3.5258    0.0755    1.2274 B   0  0  0  0  0  0  0  0  0  0  0  0
    4.6556    0.5859    0.5992 F   0  0  0  0  0  0  0  0  0  0  0  0
    3.7982   -0.5857    2.3991 F   0  0  0  0  0  0  0  0  0  0  0  0
    2.6025    1.1496    1.4547 F   0  0  0  0  0  0  0  0  0  0  0  0
    2.8512   -0.8047    0.3010 F   0  0  0  0  0  0  0  0  0  0  0  0
   -3.0592    1.0523    0.8793 H   0  0  0  0  0  0  0  0  0  0  0  0
  1  7  1  0  0  0  0
  2  8  1  0  0  0  0
  2  1  2  0  0  0  0
  3  2  1  0  0  0  0
  4  3  2  0  0  0  0
  4  5  1  0  0  0  0
  5  6  2  0  0  0  0
  6  1  1  0  0  0  0
  6 18  1  0  0  0  0
  9  4  1  0  0  0  0
 10  5  1  0  0  0  0
 11  3  1  0  0  0  0
 12 11  1  0  0  0  0
 13 16  1  0  0  0  0
 13 15  1  0  0  0  0
 14 13  1  0  0  0  0
 17 13  1  0  0  0  0
M  RAD  2  11   2  12   3
M  END
