Coordinates from ORCA-job Ph-N2-BF4-B3LYPG-6-31G_dp-scan-d09-49-n400
 OpenBabel08281821203D

 18 17  0  0  0  0  0  0  0  0999 V2000
   -1.0361    0.2881    1.1225 C   0  0  0  0  0  0  0  0  0  0  0  0
    0.2559    0.3652    0.6094 C   0  0  0  0  0  0  0  0  0  0  0  0
    0.4693    1.3187   -0.3997 C   0  0  0  0  0  0  0  0  0  0  0  0
   -0.5279    2.1742   -0.9021 C   0  0  0  0  0  0  0  0  0  0  0  0
   -1.7994    2.0677   -0.3585 C   0  0  0  0  0  0  0  0  0  0  0  0
   -2.0494    1.1272    0.6503 C   0  0  0  0  0  0  0  0  0  0  0  0
   -1.2461   -0.4323    1.9058 H   0  0  0  0  0  0  0  0  0  0  0  0
    1.0725   -0.2647    0.9629 H   0  0  0  0  0  0  0  0  0  0  0  0
   -0.2978    2.8892   -1.6844 H   0  0  0  0  0  0  0  0  0  0  0  0
   -2.5937    2.7126   -0.7178 H   0  0  0  0  0  0  0  0  0  0  0  0
    1.7260    1.4230   -0.9741 N   0  0  0  0  0  0  0  0  0  0  0  0
    2.7350    1.4681   -1.4452 N   0  0  0  0  0  0  0  0  0  0  0  0
    3.6256   -0.0307    1.0589 B   0  0  0  0  0  0  0  0  0  0  0  0
    4.7573   -0.0635    1.8241 F   0  0  0  0  0  0  0  0  0  0  0  0
    2.7372   -1.0917    1.3608 F   0  0  0  0  0  0  0  0  0  0  0  0
    2.9104    1.1872    1.2519 F   0  0  0  0  0  0  0  0  0  0  0  0
    3.9490   -0.1134   -0.3298 F   0  0  0  0  0  0  0  0  0  0  0  0
   -3.0473    1.0510    1.0709 H   0  0  0  0  0  0  0  0  0  0  0  0
  1  7  1  0  0  0  0
  2  8  1  0  0  0  0
  2  1  2  0  0  0  0
  3  2  1  0  0  0  0
  4  3  2  0  0  0  0
  4  5  1  0  0  0  0
  5  6  2  0  0  0  0
  6 18  1  0  0  0  0
  6  1  1  0  0  0  0
  9  4  1  0  0  0  0
 10  5  1  0  0  0  0
 11  3  1  0  0  0  0
 12 11  1  0  0  0  0
 13 16  1  0  0  0  0
 13 15  1  0  0  0  0
 13 14  1  0  0  0  0
 17 13  1  0  0  0  0
M  RAD  2  11   2  12   3
M  END
