Coordinates from ORCA-job Ph-N2-BF4-B3LYPG-6-31G_dp-scan-d09-49-n400
 OpenBabel08281821203D

 18 17  0  0  0  0  0  0  0  0999 V2000
   -0.9836    0.2718    1.0742 C   0  0  0  0  0  0  0  0  0  0  0  0
    0.3144    0.4306    0.5957 C   0  0  0  0  0  0  0  0  0  0  0  0
    0.4931    1.4109   -0.3963 C   0  0  0  0  0  0  0  0  0  0  0  0
   -0.5404    2.2124   -0.9119 C   0  0  0  0  0  0  0  0  0  0  0  0
   -1.8173    2.0193   -0.4064 C   0  0  0  0  0  0  0  0  0  0  0  0
   -2.0349    1.0512    0.5835 C   0  0  0  0  0  0  0  0  0  0  0  0
   -1.1675   -0.4699    1.8442 H   0  0  0  0  0  0  0  0  0  0  0  0
    1.1447   -0.1608    0.9784 H   0  0  0  0  0  0  0  0  0  0  0  0
   -0.3332    2.9523   -1.6772 H   0  0  0  0  0  0  0  0  0  0  0  0
   -2.6404    2.6184   -0.7797 H   0  0  0  0  0  0  0  0  0  0  0  0
    1.7621    1.6014   -0.9166 N   0  0  0  0  0  0  0  0  0  0  0  0
    2.8257    1.6320   -1.2443 N   0  0  0  0  0  0  0  0  0  0  0  0
    3.5697   -0.0896    1.0833 B   0  0  0  0  0  0  0  0  0  0  0  0
    4.8949   -0.2303    1.3822 F   0  0  0  0  0  0  0  0  0  0  0  0
    2.7250   -0.9111    1.8585 F   0  0  0  0  0  0  0  0  0  0  0  0
    3.1407    1.2566    1.2551 F   0  0  0  0  0  0  0  0  0  0  0  0
    3.3244   -0.4260   -0.2924 F   0  0  0  0  0  0  0  0  0  0  0  0
   -3.0368    0.9067    0.9756 H   0  0  0  0  0  0  0  0  0  0  0  0
  1  7  1  0  0  0  0
  2  8  1  0  0  0  0
  2  1  1  0  0  0  0
  3  2  2  0  0  0  0
  4  5  2  0  0  0  0
  4  3  1  0  0  0  0
  5  6  1  0  0  0  0
  6 18  1  0  0  0  0
  6  1  2  0  0  0  0
  9  4  1  0  0  0  0
 10  5  1  0  0  0  0
 11  3  1  0  0  0  0
 12 11  1  0  0  0  0
 13 16  1  0  0  0  0
 13 14  1  0  0  0  0
 13 15  1  0  0  0  0
 17 13  1  0  0  0  0
M  RAD  2  11   2  12   3
M  END
