Coordinates from ORCA-job Ph-N2-BF4-B3LYPG-6-31G_dp-scan-d09-49-n400
 OpenBabel08281821203D

 18 17  0  0  0  0  0  0  0  0999 V2000
   -1.0114    0.2777    1.0983 C   0  0  0  0  0  0  0  0  0  0  0  0
    0.2817    0.3877    0.5939 C   0  0  0  0  0  0  0  0  0  0  0  0
    0.4788    1.3563   -0.4049 C   0  0  0  0  0  0  0  0  0  0  0  0
   -0.5338    2.1954   -0.9037 C   0  0  0  0  0  0  0  0  0  0  0  0
   -1.8061    2.0541   -0.3699 C   0  0  0  0  0  0  0  0  0  0  0  0
   -2.0408    1.0976    0.6275 C   0  0  0  0  0  0  0  0  0  0  0  0
   -1.2089   -0.4546    1.8740 H   0  0  0  0  0  0  0  0  0  0  0  0
    1.1052   -0.2290    0.9549 H   0  0  0  0  0  0  0  0  0  0  0  0
   -0.3148    2.9239   -1.6766 H   0  0  0  0  0  0  0  0  0  0  0  0
   -2.6127    2.6843   -0.7276 H   0  0  0  0  0  0  0  0  0  0  0  0
    1.7382    1.4926   -0.9650 N   0  0  0  0  0  0  0  0  0  0  0  0
    2.7670    1.5297   -1.3906 N   0  0  0  0  0  0  0  0  0  0  0  0
    3.6011   -0.0541    1.0763 B   0  0  0  0  0  0  0  0  0  0  0  0
    4.8257   -0.0935    1.6804 F   0  0  0  0  0  0  0  0  0  0  0  0
    2.7100   -1.0311    1.5815 F   0  0  0  0  0  0  0  0  0  0  0  0
    2.9798    1.2163    1.2500 F   0  0  0  0  0  0  0  0  0  0  0  0
    3.7210   -0.2713   -0.3335 F   0  0  0  0  0  0  0  0  0  0  0  0
   -3.0394    0.9942    1.0408 H   0  0  0  0  0  0  0  0  0  0  0  0
  1  7  1  0  0  0  0
  2  8  1  0  0  0  0
  2  1  2  0  0  0  0
  3  2  1  0  0  0  0
  4  3  2  0  0  0  0
  4  5  1  0  0  0  0
  5  6  2  0  0  0  0
  6 18  1  0  0  0  0
  6  1  1  0  0  0  0
  9  4  1  0  0  0  0
 10  5  1  0  0  0  0
 11  3  1  0  0  0  0
 12 11  1  0  0  0  0
 13 16  1  0  0  0  0
 13 15  1  0  0  0  0
 13 14  1  0  0  0  0
 17 13  1  0  0  0  0
M  RAD  2  11   2  12   3
M  END
