Coordinates from ORCA-job Ph-N2-BF4-B3LYPG-6-31G_dp-scan-d09-49-n400
 OpenBabel08281821203D

 18 17  0  0  0  0  0  0  0  0999 V2000
   -1.0690    0.0951    0.6466 C   0  0  0  0  0  0  0  0  0  0  0  0
    0.2593    0.3040    0.2885 C   0  0  0  0  0  0  0  0  0  0  0  0
    0.5722    1.4747   -0.4271 C   0  0  0  0  0  0  0  0  0  0  0  0
   -0.4143    2.4116   -0.7740 C   0  0  0  0  0  0  0  0  0  0  0  0
   -1.7347    2.1791   -0.4076 C   0  0  0  0  0  0  0  0  0  0  0  0
   -2.0602    1.0200    0.3029 C   0  0  0  0  0  0  0  0  0  0  0  0
   -1.3302   -0.7992    1.2028 H   0  0  0  0  0  0  0  0  0  0  0  0
    1.0266   -0.4047    0.5624 H   0  0  0  0  0  0  0  0  0  0  0  0
   -0.1256    3.3019   -1.3218 H   0  0  0  0  0  0  0  0  0  0  0  0
   -2.5046    2.8962   -0.6720 H   0  0  0  0  0  0  0  0  0  0  0  0
    1.8683    1.8075   -0.8499 N   0  0  0  0  0  0  0  0  0  0  0  0
    2.9651    1.3998   -0.8497 N   0  0  0  0  0  0  0  0  0  0  0  0
    3.5218   -0.0939    1.5455 B   0  0  0  0  0  0  0  0  0  0  0  0
    3.0752   -0.0434   -0.1637 F   0  0  0  0  0  0  0  0  0  0  0  0
    4.8403   -0.3192    1.4838 F   0  0  0  0  0  0  0  0  0  0  0  0
    3.1122    1.1368    1.9288 F   0  0  0  0  0  0  0  0  0  0  0  0
    2.7283   -1.1279    1.9165 F   0  0  0  0  0  0  0  0  0  0  0  0
   -3.0902    0.8376    0.5941 H   0  0  0  0  0  0  0  0  0  0  0  0
  1  7  1  0  0  0  0
  2  8  1  0  0  0  0
  2  1  2  0  0  0  0
  3  2  1  0  0  0  0
  4  3  2  0  0  0  0
  4  5  1  0  0  0  0
  5  6  2  0  0  0  0
  6 18  1  0  0  0  0
  6  1  1  0  0  0  0
  9  4  1  0  0  0  0
 10  5  1  0  0  0  0
 11 12  1  0  0  0  0
 11  3  1  0  0  0  0
 12 14  1  0  0  0  0
 13 17  1  0  0  0  0
 13 16  1  0  0  0  0
 15 13  1  0  0  0  0
M  RAD  2  11   2  12   2
M  END
