Coordinates from ORCA-job Ph-N2-BF4-B3LYPG-6-31G_dp-scan-d09-49-n400
 OpenBabel08281821203D

 18 17  0  0  0  0  0  0  0  0999 V2000
   -1.1214    0.1061    0.8694 C   0  0  0  0  0  0  0  0  0  0  0  0
    0.1932    0.1557    0.4199 C   0  0  0  0  0  0  0  0  0  0  0  0
    0.5341    1.2384   -0.4030 C   0  0  0  0  0  0  0  0  0  0  0  0
   -0.3580    2.2564   -0.7834 C   0  0  0  0  0  0  0  0  0  0  0  0
   -1.6580    2.1748   -0.3049 C   0  0  0  0  0  0  0  0  0  0  0  0
   -2.0354    1.1045    0.5173 C   0  0  0  0  0  0  0  0  0  0  0  0
   -1.4289   -0.7131    1.5104 H   0  0  0  0  0  0  0  0  0  0  0  0
    0.9597   -0.5744    0.6588 H   0  0  0  0  0  0  0  0  0  0  0  0
   -0.0308    3.0733   -1.4168 H   0  0  0  0  0  0  0  0  0  0  0  0
   -2.3752    2.9439   -0.5701 H   0  0  0  0  0  0  0  0  0  0  0  0
    1.8214    1.3305   -0.9153 N   0  0  0  0  0  0  0  0  0  0  0  0
    2.7782    1.4857   -1.4587 N   0  0  0  0  0  0  0  0  0  0  0  0
    3.5225    0.0799    1.2301 B   0  0  0  0  0  0  0  0  0  0  0  0
    4.6678    0.5811    0.6255 F   0  0  0  0  0  0  0  0  0  0  0  0
    3.7658   -0.5863    2.4059 F   0  0  0  0  0  0  0  0  0  0  0  0
    2.6026    1.1604    1.4428 F   0  0  0  0  0  0  0  0  0  0  0  0
    2.8572   -0.7939    0.2899 F   0  0  0  0  0  0  0  0  0  0  0  0
   -3.0542    1.0530    0.8883 H   0  0  0  0  0  0  0  0  0  0  0  0
  1  7  1  0  0  0  0
  2  8  1  0  0  0  0
  2  1  2  0  0  0  0
  3  2  1  0  0  0  0
  4  3  2  0  0  0  0
  4  5  1  0  0  0  0
  5  6  2  0  0  0  0
  6  1  1  0  0  0  0
  6 18  1  0  0  0  0
  9  4  1  0  0  0  0
 10  5  1  0  0  0  0
 11  3  1  0  0  0  0
 12 11  1  0  0  0  0
 13 16  1  0  0  0  0
 13 15  1  0  0  0  0
 14 13  1  0  0  0  0
 17 13  1  0  0  0  0
M  RAD  2  11   2  12   3
M  END
