Coordinates from ORCA-job Ph-N2-BF4-B3LYPG-6-31G_dp-scan-d09-49-n400
 OpenBabel08281821203D

 18 17  0  0  0  0  0  0  0  0999 V2000
   -1.0265    0.2943    1.1604 C   0  0  0  0  0  0  0  0  0  0  0  0
    0.2444    0.3036    0.5928 C   0  0  0  0  0  0  0  0  0  0  0  0
    0.4577    1.2319   -0.4379 C   0  0  0  0  0  0  0  0  0  0  0  0
   -0.5159    2.1318   -0.9116 C   0  0  0  0  0  0  0  0  0  0  0  0
   -1.7644    2.0947   -0.3100 C   0  0  0  0  0  0  0  0  0  0  0  0
   -2.0160    1.1783    0.7213 C   0  0  0  0  0  0  0  0  0  0  0  0
   -1.2378   -0.4054    1.9619 H   0  0  0  0  0  0  0  0  0  0  0  0
    1.0574   -0.3507    0.9056 H   0  0  0  0  0  0  0  0  0  0  0  0
   -0.2862    2.8258   -1.7125 H   0  0  0  0  0  0  0  0  0  0  0  0
   -2.5407    2.7752   -0.6421 H   0  0  0  0  0  0  0  0  0  0  0  0
    1.6857    1.2635   -1.0819 N   0  0  0  0  0  0  0  0  0  0  0  0
    2.6040    1.3132   -1.7097 N   0  0  0  0  0  0  0  0  0  0  0  0
    3.6337    0.0448    1.0815 B   0  0  0  0  0  0  0  0  0  0  0  0
    4.4594   -0.1482    2.1665 F   0  0  0  0  0  0  0  0  0  0  0  0
    2.7754   -1.0806    0.8878 F   0  0  0  0  0  0  0  0  0  0  0  0
    2.7741    1.1752    1.2702 F   0  0  0  0  0  0  0  0  0  0  0  0
    4.3334    0.2706   -0.1219 F   0  0  0  0  0  0  0  0  0  0  0  0
   -2.9971    1.1578    1.1857 H   0  0  0  0  0  0  0  0  0  0  0  0
  1  7  1  0  0  0  0
  2  8  1  0  0  0  0
  2  1  2  0  0  0  0
  3  2  1  0  0  0  0
  4  3  2  0  0  0  0
  4  5  1  0  0  0  0
  5  6  2  0  0  0  0
  6  1  1  0  0  0  0
  6 18  1  0  0  0  0
  9  4  1  0  0  0  0
 10  5  1  0  0  0  0
 11  3  1  0  0  0  0
 12 11  1  0  0  0  0
 13 16  1  0  0  0  0
 13 14  1  0  0  0  0
 15 13  1  0  0  0  0
 17 13  1  0  0  0  0
M  RAD  2  11   2  12   3
M  END
