Coordinates from ORCA-job p-CH3O-Ph-N2-X-Cl-B3LYPG-6-31G_dp-scan-d09-49-n400
 OpenBabel08281821013D

 18 17  0  0  0  0  0  0  0  0999 V2000
   -1.3601   -1.6602   -1.6950 C   0  0  0  0  0  0  0  0  0  0  0  0
   -0.0506   -1.3214   -1.8977 C   0  0  0  0  0  0  0  0  0  0  0  0
    0.4585   -0.2639   -1.0876 C   0  0  0  0  0  0  0  0  0  0  0  0
   -0.2209    0.4834   -0.0974 C   0  0  0  0  0  0  0  0  0  0  0  0
   -1.5574    0.0734    0.0466 C   0  0  0  0  0  0  0  0  0  0  0  0
   -2.1245   -0.9593   -0.7147 C   0  0  0  0  0  0  0  0  0  0  0  0
   -1.8419   -2.4508   -2.2591 H   0  0  0  0  0  0  0  0  0  0  0  0
    0.5643   -1.8307   -2.6345 H   0  0  0  0  0  0  0  0  0  0  0  0
    0.5345    1.8163    0.8726 H   0  0  0  0  0  0  0  0  0  0  0  0
   -2.1758    0.5824    0.7820 H   0  0  0  0  0  0  0  0  0  0  0  0
    1.7670    0.0896   -1.2742 N   0  0  0  0  0  0  0  0  0  0  0  0
    2.8358    0.4095   -1.3963 N   0  0  0  0  0  0  0  0  0  0  0  0
    1.0783    2.7459    1.5283 Cl  0  0  0  0  0  0  0  0  0  0  0  0
   -3.3972   -1.3900   -0.6142 O   0  0  0  0  0  0  0  0  0  0  0  0
   -4.2668   -0.7658    0.3317 C   0  0  0  0  0  0  0  0  0  0  0  0
   -5.2233   -1.2794    0.2356 H   0  0  0  0  0  0  0  0  0  0  0  0
   -4.3958    0.2985    0.1072 H   0  0  0  0  0  0  0  0  0  0  0  0
   -3.8875   -0.8806    1.3528 H   0  0  0  0  0  0  0  0  0  0  0  0
  1  6  1  0  0  0  0
  2  1  2  0  0  0  0
  2  3  1  0  0  0  0
  3  4  2  0  0  0  0
  4  5  1  0  0  0  0
  5 10  1  0  0  0  0
  6 14  1  0  0  0  0
  6  5  2  0  0  0  0
  7  1  1  0  0  0  0
  8  2  1  0  0  0  0
  9 13  1  0  0  0  0
 11  3  1  0  0  0  0
 12 11  1  0  0  0  0
 14 15  1  0  0  0  0
 15 18  1  0  0  0  0
 16 15  1  0  0  0  0
 17 15  1  0  0  0  0
M  RAD  3   4   2  11   2  12   3
M  END
