Coordinates from ORCA-job p-CH3O-Ph-N2-X-Cl-B3LYPG-6-31G_dp-scan-d09-49-n400
 OpenBabel08281821013D

 18 18  0  0  0  0  0  0  0  0999 V2000
   -1.2043   -1.6130   -1.4269 C   0  0  0  0  0  0  0  0  0  0  0  0
    0.0332   -1.0512   -1.6909 C   0  0  0  0  0  0  0  0  0  0  0  0
    0.3590    0.1844   -1.1163 C   0  0  0  0  0  0  0  0  0  0  0  0
   -0.5648    0.8916   -0.3456 C   0  0  0  0  0  0  0  0  0  0  0  0
   -1.8163    0.3293   -0.1003 C   0  0  0  0  0  0  0  0  0  0  0  0
   -2.1384   -0.9296   -0.6280 C   0  0  0  0  0  0  0  0  0  0  0  0
   -1.4770   -2.5812   -1.8308 H   0  0  0  0  0  0  0  0  0  0  0  0
    0.7573   -1.5672   -2.3121 H   0  0  0  0  0  0  0  0  0  0  0  0
   -0.3302    1.8751    0.0446 H   0  0  0  0  0  0  0  0  0  0  0  0
   -2.5271    0.8806    0.5028 H   0  0  0  0  0  0  0  0  0  0  0  0
    1.6162    0.7562   -1.4314 N   0  0  0  0  0  0  0  0  0  0  0  0
    2.6257    1.0053   -0.8938 N   0  0  0  0  0  0  0  0  0  0  0  0
    2.7610    0.4174    1.1326 Cl  0  0  0  0  0  0  0  0  0  0  0  0
   -3.3210   -1.5642   -0.4389 O   0  0  0  0  0  0  0  0  0  0  0  0
   -4.3082   -0.9413    0.3754 C   0  0  0  0  0  0  0  0  0  0  0  0
   -5.1548   -1.6283    0.3951 H   0  0  0  0  0  0  0  0  0  0  0  0
   -4.6305    0.0180   -0.0472 H   0  0  0  0  0  0  0  0  0  0  0  0
   -3.9433   -0.7849    1.3976 H   0  0  0  0  0  0  0  0  0  0  0  0
  1  6  1  0  0  0  0
  2  1  2  0  0  0  0
  2  3  1  0  0  0  0
  3  4  2  0  0  0  0
  4  5  1  0  0  0  0
  4  9  1  0  0  0  0
  5 10  1  0  0  0  0
  6 14  1  0  0  0  0
  6  5  2  0  0  0  0
  7  1  1  0  0  0  0
  8  2  1  0  0  0  0
 11  3  1  0  0  0  0
 11 12  2  0  0  0  0
 12 13  1  0  0  0  0
 14 15  1  0  0  0  0
 15 16  1  0  0  0  0
 15 18  1  0  0  0  0
 17 15  1  0  0  0  0
M  END
