Coordinates from ORCA-job p-CH3O-Ph-N2-X-Cl-B3LYPG-6-31G_dp-scan-d09-49-n400
 OpenBabel08281821013D

 18 17  0  0  0  0  0  0  0  0999 V2000
   -1.3496   -1.6390   -1.6773 C   0  0  0  0  0  0  0  0  0  0  0  0
   -0.0407   -1.2890   -1.8699 C   0  0  0  0  0  0  0  0  0  0  0  0
    0.4565   -0.2299   -1.0574 C   0  0  0  0  0  0  0  0  0  0  0  0
   -0.2472    0.5022   -0.0755 C   0  0  0  0  0  0  0  0  0  0  0  0
   -1.5784    0.0895    0.0648 C   0  0  0  0  0  0  0  0  0  0  0  0
   -2.1297   -0.9483   -0.7032 C   0  0  0  0  0  0  0  0  0  0  0  0
   -1.8188   -2.4332   -2.2466 H   0  0  0  0  0  0  0  0  0  0  0  0
    0.5833   -1.7927   -2.6026 H   0  0  0  0  0  0  0  0  0  0  0  0
    0.4979    1.6689    0.7444 H   0  0  0  0  0  0  0  0  0  0  0  0
   -2.2007    0.5961    0.7977 H   0  0  0  0  0  0  0  0  0  0  0  0
    1.7636    0.1376   -1.2296 N   0  0  0  0  0  0  0  0  0  0  0  0
    2.8286    0.4717   -1.3364 N   0  0  0  0  0  0  0  0  0  0  0  0
    1.2063    2.6279    1.3800 Cl  0  0  0  0  0  0  0  0  0  0  0  0
   -3.3976   -1.3895   -0.6124 O   0  0  0  0  0  0  0  0  0  0  0  0
   -4.2807   -0.7754    0.3289 C   0  0  0  0  0  0  0  0  0  0  0  0
   -5.2310   -1.2983    0.2245 H   0  0  0  0  0  0  0  0  0  0  0  0
   -4.4181    0.2878    0.1047 H   0  0  0  0  0  0  0  0  0  0  0  0
   -3.9071   -0.8893    1.3521 H   0  0  0  0  0  0  0  0  0  0  0  0
  1  6  1  0  0  0  0
  2  1  2  0  0  0  0
  2  3  1  0  0  0  0
  3  4  2  0  0  0  0
  4  5  1  0  0  0  0
  5 10  1  0  0  0  0
  6 14  1  0  0  0  0
  6  5  2  0  0  0  0
  7  1  1  0  0  0  0
  8  2  1  0  0  0  0
  9 13  1  0  0  0  0
 11  3  1  0  0  0  0
 12 11  1  0  0  0  0
 14 15  1  0  0  0  0
 15 18  1  0  0  0  0
 16 15  1  0  0  0  0
 17 15  1  0  0  0  0
M  RAD  3   4   2  11   2  12   3
M  END
