Coordinates from ORCA-job p-CH3O-Ph-N2-X-Cl-B3LYPG-6-31G_dp-scan-d09-49-n400
 OpenBabel08281821013D

 18 17  0  0  0  0  0  0  0  0999 V2000
   -1.3469   -1.6140   -1.6521 C   0  0  0  0  0  0  0  0  0  0  0  0
   -0.0288   -1.2475   -1.8342 C   0  0  0  0  0  0  0  0  0  0  0  0
    0.4807   -0.2049   -1.0433 C   0  0  0  0  0  0  0  0  0  0  0  0
   -0.2805    0.4759   -0.0859 C   0  0  0  0  0  0  0  0  0  0  0  0
   -1.6062    0.0961    0.0850 C   0  0  0  0  0  0  0  0  0  0  0  0
   -2.1429   -0.9460   -0.6933 C   0  0  0  0  0  0  0  0  0  0  0  0
   -1.7997   -2.4115   -2.2303 H   0  0  0  0  0  0  0  0  0  0  0  0
    0.6018   -1.7447   -2.5638 H   0  0  0  0  0  0  0  0  0  0  0  0
    0.2836    1.2883    0.4649 H   0  0  0  0  0  0  0  0  0  0  0  0
   -2.2151    0.6096    0.8199 H   0  0  0  0  0  0  0  0  0  0  0  0
    1.8130    0.1956   -1.1983 N   0  0  0  0  0  0  0  0  0  0  0  0
    2.5773    0.9591   -0.7741 N   0  0  0  0  0  0  0  0  0  0  0  0
    1.7236    2.2975    0.8599 Cl  0  0  0  0  0  0  0  0  0  0  0  0
   -3.4148   -1.3892   -0.6033 O   0  0  0  0  0  0  0  0  0  0  0  0
   -4.2964   -0.7744    0.3341 C   0  0  0  0  0  0  0  0  0  0  0  0
   -5.2483   -1.2949    0.2303 H   0  0  0  0  0  0  0  0  0  0  0  0
   -4.4358    0.2895    0.1102 H   0  0  0  0  0  0  0  0  0  0  0  0
   -3.9282   -0.8875    1.3603 H   0  0  0  0  0  0  0  0  0  0  0  0
  1  6  1  0  0  0  0
  2  1  2  0  0  0  0
  2  3  1  0  0  0  0
  3  4  2  0  0  0  0
  4  5  1  0  0  0  0
  4  9  1  0  0  0  0
  5 10  1  0  0  0  0
  6 14  1  0  0  0  0
  6  5  2  0  0  0  0
  7  1  1  0  0  0  0
  8  2  1  0  0  0  0
 11  3  1  0  0  0  0
 11 12  2  0  0  0  0
 14 15  1  0  0  0  0
 15 18  1  0  0  0  0
 16 15  1  0  0  0  0
 17 15  1  0  0  0  0
M  RAD  2  12   2  13   2
M  END
