Coordinates from ORCA-job p-CH3O-Ph-N2-X-Cl-B3LYPG-6-31G_dp-scan-d09-49-n400
 OpenBabel08281821013D

 18 18  0  0  0  0  0  0  0  0999 V2000
   -1.0777   -1.5685   -1.2279 C   0  0  0  0  0  0  0  0  0  0  0  0
    0.1362   -0.9462   -1.4653 C   0  0  0  0  0  0  0  0  0  0  0  0
    0.3080    0.3756   -1.0338 C   0  0  0  0  0  0  0  0  0  0  0  0
   -0.7076    1.0674   -0.3839 C   0  0  0  0  0  0  0  0  0  0  0  0
   -1.9175    0.4290   -0.1197 C   0  0  0  0  0  0  0  0  0  0  0  0
   -2.1101   -0.8913   -0.5525 C   0  0  0  0  0  0  0  0  0  0  0  0
   -1.2522   -2.5902   -1.5458 H   0  0  0  0  0  0  0  0  0  0  0  0
    0.9433   -1.4671   -1.9663 H   0  0  0  0  0  0  0  0  0  0  0  0
   -0.5153    2.0778   -0.0468 H   0  0  0  0  0  0  0  0  0  0  0  0
   -2.6933    0.9632    0.4143 H   0  0  0  0  0  0  0  0  0  0  0  0
    1.5152    1.0690   -1.3037 N   0  0  0  0  0  0  0  0  0  0  0  0
    2.6355    0.9254   -0.9740 N   0  0  0  0  0  0  0  0  0  0  0  0
    2.9374   -0.6154    0.3709 Cl  0  0  0  0  0  0  0  0  0  0  0  0
   -3.2505   -1.6021   -0.3694 O   0  0  0  0  0  0  0  0  0  0  0  0
   -4.3349   -0.9872    0.3166 C   0  0  0  0  0  0  0  0  0  0  0  0
   -5.1288   -1.7342    0.3497 H   0  0  0  0  0  0  0  0  0  0  0  0
   -4.6949   -0.0988   -0.2165 H   0  0  0  0  0  0  0  0  0  0  0  0
   -4.0561   -0.7092    1.3401 H   0  0  0  0  0  0  0  0  0  0  0  0
  1  6  1  0  0  0  0
  2  1  2  0  0  0  0
  2  3  1  0  0  0  0
  3  4  2  0  0  0  0
  4  5  1  0  0  0  0
  4  9  1  0  0  0  0
  5 10  1  0  0  0  0
  6 14  1  0  0  0  0
  6  5  2  0  0  0  0
  7  1  1  0  0  0  0
  8  2  1  0  0  0  0
 11  3  1  0  0  0  0
 11 12  1  0  0  0  0
 12 13  1  0  0  0  0
 14 15  1  0  0  0  0
 15 16  1  0  0  0  0
 15 18  1  0  0  0  0
 17 15  1  0  0  0  0
M  RAD  2  11   2  12   2
M  END
