Coordinates from ORCA-job p-CH3O-Ph-N2-X-Cl-B3LYPG-6-31G_dp-scan-d09-49-n400
 OpenBabel08281821013D

 18 18  0  0  0  0  0  0  0  0999 V2000
   -1.0834   -1.5704   -1.2401 C   0  0  0  0  0  0  0  0  0  0  0  0
    0.1309   -0.9500   -1.4814 C   0  0  0  0  0  0  0  0  0  0  0  0
    0.3092    0.3686   -1.0442 C   0  0  0  0  0  0  0  0  0  0  0  0
   -0.7007    1.0609   -0.3861 C   0  0  0  0  0  0  0  0  0  0  0  0
   -1.9117    0.4248   -0.1201 C   0  0  0  0  0  0  0  0  0  0  0  0
   -2.1105   -0.8930   -0.5574 C   0  0  0  0  0  0  0  0  0  0  0  0
   -1.2620   -2.5904   -1.5611 H   0  0  0  0  0  0  0  0  0  0  0  0
    0.9339   -1.4711   -1.9892 H   0  0  0  0  0  0  0  0  0  0  0  0
   -0.5058    2.0697   -0.0450 H   0  0  0  0  0  0  0  0  0  0  0  0
   -2.6834    0.9593    0.4195 H   0  0  0  0  0  0  0  0  0  0  0  0
    1.5193    1.0569   -1.3191 N   0  0  0  0  0  0  0  0  0  0  0  0
    2.6339    0.9269   -0.9661 N   0  0  0  0  0  0  0  0  0  0  0  0
    2.9158   -0.5718    0.4297 Cl  0  0  0  0  0  0  0  0  0  0  0  0
   -3.2525   -1.6011   -0.3719 O   0  0  0  0  0  0  0  0  0  0  0  0
   -4.3313   -0.9856    0.3222 C   0  0  0  0  0  0  0  0  0  0  0  0
   -5.1277   -1.7299    0.3558 H   0  0  0  0  0  0  0  0  0  0  0  0
   -4.6909   -0.0935   -0.2050 H   0  0  0  0  0  0  0  0  0  0  0  0
   -4.0466   -0.7132    1.3456 H   0  0  0  0  0  0  0  0  0  0  0  0
  1  6  1  0  0  0  0
  2  1  2  0  0  0  0
  2  3  1  0  0  0  0
  3  4  2  0  0  0  0
  4  5  1  0  0  0  0
  4  9  1  0  0  0  0
  5 10  1  0  0  0  0
  6 14  1  0  0  0  0
  6  5  2  0  0  0  0
  7  1  1  0  0  0  0
  8  2  1  0  0  0  0
 11  3  1  0  0  0  0
 11 12  1  0  0  0  0
 12 13  1  0  0  0  0
 14 15  1  0  0  0  0
 15 16  1  0  0  0  0
 15 18  1  0  0  0  0
 17 15  1  0  0  0  0
M  RAD  2  11   2  12   2
M  END
