Coordinates from ORCA-job p-CH3O-Ph-N2-X-Cl-B3LYPG-6-31G_dp-scan-d09-49-n400
 OpenBabel08281821013D

 18 17  0  0  0  0  0  0  0  0999 V2000
   -1.3693   -1.6760   -1.7072 C   0  0  0  0  0  0  0  0  0  0  0  0
   -0.0595   -1.3430   -1.9151 C   0  0  0  0  0  0  0  0  0  0  0  0
    0.4550   -0.2861   -1.1061 C   0  0  0  0  0  0  0  0  0  0  0  0
   -0.2102    0.4703   -0.1115 C   0  0  0  0  0  0  0  0  0  0  0  0
   -1.5502    0.0606    0.0338 C   0  0  0  0  0  0  0  0  0  0  0  0
   -2.1251   -0.9696   -0.7237 C   0  0  0  0  0  0  0  0  0  0  0  0
   -1.8578   -2.4646   -2.2682 H   0  0  0  0  0  0  0  0  0  0  0  0
    0.5508   -1.8553   -2.6539 H   0  0  0  0  0  0  0  0  0  0  0  0
    0.5813    1.9513    0.9820 H   0  0  0  0  0  0  0  0  0  0  0  0
   -2.1675    0.5703    0.7701 H   0  0  0  0  0  0  0  0  0  0  0  0
    1.7645    0.0603   -1.3000 N   0  0  0  0  0  0  0  0  0  0  0  0
    2.8348    0.3746   -1.4281 N   0  0  0  0  0  0  0  0  0  0  0  0
    1.0461    2.8235    1.6096 Cl  0  0  0  0  0  0  0  0  0  0  0  0
   -3.4007   -1.3952   -0.6183 O   0  0  0  0  0  0  0  0  0  0  0  0
   -4.2632   -0.7663    0.3296 C   0  0  0  0  0  0  0  0  0  0  0  0
   -5.2229   -1.2750    0.2380 H   0  0  0  0  0  0  0  0  0  0  0  0
   -4.3882    0.2987    0.1052 H   0  0  0  0  0  0  0  0  0  0  0  0
   -3.8811   -0.8813    1.3498 H   0  0  0  0  0  0  0  0  0  0  0  0
  1  6  1  0  0  0  0
  2  1  2  0  0  0  0
  2  3  1  0  0  0  0
  3  4  2  0  0  0  0
  4  5  1  0  0  0  0
  5 10  1  0  0  0  0
  6 14  1  0  0  0  0
  6  5  2  0  0  0  0
  7  1  1  0  0  0  0
  8  2  1  0  0  0  0
  9 13  1  0  0  0  0
 11  3  1  0  0  0  0
 12 11  1  0  0  0  0
 14 15  1  0  0  0  0
 15 18  1  0  0  0  0
 16 15  1  0  0  0  0
 17 15  1  0  0  0  0
M  RAD  3   4   2  11   2  12   3
M  END
