Coordinates from ORCA-job p-CH3O-Ph-N2-X-Cl-B3LYPG-6-31G_dp-scan-d09-49-n400
 OpenBabel08281821013D

 18 17  0  0  0  0  0  0  0  0999 V2000
   -1.3459   -1.5988   -1.6365 C   0  0  0  0  0  0  0  0  0  0  0  0
   -0.0319   -1.2064   -1.7939 C   0  0  0  0  0  0  0  0  0  0  0  0
    0.4747   -0.1607   -1.0012 C   0  0  0  0  0  0  0  0  0  0  0  0
   -0.3276    0.4935   -0.0542 C   0  0  0  0  0  0  0  0  0  0  0  0
   -1.6495    0.0939    0.0977 C   0  0  0  0  0  0  0  0  0  0  0  0
   -2.1657   -0.9513   -0.6890 C   0  0  0  0  0  0  0  0  0  0  0  0
   -1.7731   -2.4013   -2.2273 H   0  0  0  0  0  0  0  0  0  0  0  0
    0.6157   -1.6906   -2.5171 H   0  0  0  0  0  0  0  0  0  0  0  0
    0.1186    1.2949    0.5308 H   0  0  0  0  0  0  0  0  0  0  0  0
   -2.2698    0.5988    0.8280 H   0  0  0  0  0  0  0  0  0  0  0  0
    1.8106    0.1966   -1.2001 N   0  0  0  0  0  0  0  0  0  0  0  0
    2.6511    0.9225   -0.8389 N   0  0  0  0  0  0  0  0  0  0  0  0
    2.1284    2.3352    0.7476 Cl  0  0  0  0  0  0  0  0  0  0  0  0
   -3.4327   -1.4099   -0.6139 O   0  0  0  0  0  0  0  0  0  0  0  0
   -4.3323   -0.8094    0.3156 C   0  0  0  0  0  0  0  0  0  0  0  0
   -5.2765   -1.3410    0.1988 H   0  0  0  0  0  0  0  0  0  0  0  0
   -4.4825    0.2536    0.0939 H   0  0  0  0  0  0  0  0  0  0  0  0
   -3.9749   -0.9226    1.3457 H   0  0  0  0  0  0  0  0  0  0  0  0
  1  6  1  0  0  0  0
  2  1  2  0  0  0  0
  2  3  1  0  0  0  0
  3  4  2  0  0  0  0
  4  5  1  0  0  0  0
  4  9  1  0  0  0  0
  5 10  1  0  0  0  0
  6 14  1  0  0  0  0
  6  5  2  0  0  0  0
  7  1  1  0  0  0  0
  8  2  1  0  0  0  0
 11  3  1  0  0  0  0
 11 12  2  0  0  0  0
 14 15  1  0  0  0  0
 15 18  1  0  0  0  0
 16 15  1  0  0  0  0
 17 15  1  0  0  0  0
M  RAD  2  12   2  13   2
M  END
