Coordinates from ORCA-job p-CH3O-Ph-N2-X-Cl-B3LYPG-6-31G_dp-scan-d09-49-n400
 OpenBabel08281821013D

 18 18  0  0  0  0  0  0  0  0999 V2000
   -1.1294   -1.5861   -1.3233 C   0  0  0  0  0  0  0  0  0  0  0  0
    0.0914   -0.9848   -1.5836 C   0  0  0  0  0  0  0  0  0  0  0  0
    0.3241    0.3061   -1.0963 C   0  0  0  0  0  0  0  0  0  0  0  0
   -0.6491    1.0059   -0.3901 C   0  0  0  0  0  0  0  0  0  0  0  0
   -1.8728    0.3930   -0.1237 C   0  0  0  0  0  0  0  0  0  0  0  0
   -2.1187   -0.9058   -0.5915 C   0  0  0  0  0  0  0  0  0  0  0  0
   -1.3418   -2.5906   -1.6714 H   0  0  0  0  0  0  0  0  0  0  0  0
    0.8624   -1.5062   -2.1396 H   0  0  0  0  0  0  0  0  0  0  0  0
   -0.4404    2.0062   -0.0293 H   0  0  0  0  0  0  0  0  0  0  0  0
   -2.6187    0.9336    0.4457 H   0  0  0  0  0  0  0  0  0  0  0  0
    1.5563    0.9523   -1.3940 N   0  0  0  0  0  0  0  0  0  0  0  0
    2.6266    0.9535   -0.9118 N   0  0  0  0  0  0  0  0  0  0  0  0
    2.8103   -0.2268    0.7892 Cl  0  0  0  0  0  0  0  0  0  0  0  0
   -3.2740   -1.5898   -0.3947 O   0  0  0  0  0  0  0  0  0  0  0  0
   -4.3118   -0.9717    0.3566 C   0  0  0  0  0  0  0  0  0  0  0  0
   -5.1256   -1.6969    0.3941 H   0  0  0  0  0  0  0  0  0  0  0  0
   -4.6671   -0.0540   -0.1278 H   0  0  0  0  0  0  0  0  0  0  0  0
   -3.9851   -0.7407    1.3776 H   0  0  0  0  0  0  0  0  0  0  0  0
  1  6  1  0  0  0  0
  2  1  2  0  0  0  0
  2  3  1  0  0  0  0
  3  4  2  0  0  0  0
  4  5  1  0  0  0  0
  4  9  1  0  0  0  0
  5 10  1  0  0  0  0
  6 14  1  0  0  0  0
  6  5  2  0  0  0  0
  7  1  1  0  0  0  0
  8  2  1  0  0  0  0
 11  3  1  0  0  0  0
 11 12  1  0  0  0  0
 12 13  1  0  0  0  0
 14 15  1  0  0  0  0
 15 16  1  0  0  0  0
 15 18  1  0  0  0  0
 17 15  1  0  0  0  0
M  RAD  2  11   2  12   2
M  END
