Coordinates from ORCA-job p-CH3O-Ph-N2-X-Cl-B3LYPG-6-31G_dp-scan-d09-49-n400
 OpenBabel08281821013D

 18 18  0  0  0  0  0  0  0  0999 V2000
   -1.3464   -1.5889   -1.6264 C   0  0  0  0  0  0  0  0  0  0  0  0
   -0.0360   -1.1786   -1.7661 C   0  0  0  0  0  0  0  0  0  0  0  0
    0.4622   -0.1295   -0.9690 C   0  0  0  0  0  0  0  0  0  0  0  0
   -0.3641    0.5096   -0.0298 C   0  0  0  0  0  0  0  0  0  0  0  0
   -1.6830    0.0927    0.1055 C   0  0  0  0  0  0  0  0  0  0  0  0
   -2.1832   -0.9555   -0.6868 C   0  0  0  0  0  0  0  0  0  0  0  0
   -1.7551   -2.3946   -2.2258 H   0  0  0  0  0  0  0  0  0  0  0  0
    0.6240   -1.6535   -2.4840 H   0  0  0  0  0  0  0  0  0  0  0  0
    0.0164    1.3160    0.5810 H   0  0  0  0  0  0  0  0  0  0  0  0
   -2.3146    0.5902    0.8311 H   0  0  0  0  0  0  0  0  0  0  0  0
    1.7998    0.2065   -1.1879 N   0  0  0  0  0  0  0  0  0  0  0  0
    2.7052    0.8830   -0.8957 N   0  0  0  0  0  0  0  0  0  0  0  0
    2.4398    2.3703    0.6715 Cl  0  0  0  0  0  0  0  0  0  0  0  0
   -3.4458   -1.4262   -0.6233 O   0  0  0  0  0  0  0  0  0  0  0  0
   -4.3589   -0.8381    0.3012 C   0  0  0  0  0  0  0  0  0  0  0  0
   -5.2967   -1.3786    0.1748 H   0  0  0  0  0  0  0  0  0  0  0  0
   -4.5181    0.2241    0.0821 H   0  0  0  0  0  0  0  0  0  0  0  0
   -4.0087   -0.9518    1.3337 H   0  0  0  0  0  0  0  0  0  0  0  0
  1  6  1  0  0  0  0
  2  1  2  0  0  0  0
  2  3  1  0  0  0  0
  3  4  2  0  0  0  0
  4  5  1  0  0  0  0
  4  9  1  0  0  0  0
  5 10  1  0  0  0  0
  6 14  1  0  0  0  0
  6  5  2  0  0  0  0
  7  1  1  0  0  0  0
  8  2  1  0  0  0  0
 11  3  1  0  0  0  0
 11 12  2  0  0  0  0
 12 13  1  0  0  0  0
 14 15  1  0  0  0  0
 15 18  1  0  0  0  0
 16 15  1  0  0  0  0
 17 15  1  0  0  0  0
M  END
