Coordinates from ORCA-job p-CH3O-Ph-N2-X-Cl-B3LYPG-6-31G_dp-scan-d09-49-n400
 OpenBabel08281821013D

 18 18  0  0  0  0  0  0  0  0999 V2000
   -1.0735   -1.5673   -1.2181 C   0  0  0  0  0  0  0  0  0  0  0  0
    0.1402   -0.9436   -1.4524 C   0  0  0  0  0  0  0  0  0  0  0  0
    0.3073    0.3804   -1.0250 C   0  0  0  0  0  0  0  0  0  0  0  0
   -0.7128    1.0719   -0.3817 C   0  0  0  0  0  0  0  0  0  0  0  0
   -1.9221    0.4321   -0.1191 C   0  0  0  0  0  0  0  0  0  0  0  0
   -2.1099   -0.8901   -0.5486 C   0  0  0  0  0  0  0  0  0  0  0  0
   -1.2450   -2.5901   -1.5338 H   0  0  0  0  0  0  0  0  0  0  0  0
    0.9504   -1.4644   -1.9483 H   0  0  0  0  0  0  0  0  0  0  0  0
   -0.5226    2.0838   -0.0480 H   0  0  0  0  0  0  0  0  0  0  0  0
   -2.7011    0.9663    0.4102 H   0  0  0  0  0  0  0  0  0  0  0  0
    1.5121    1.0779   -1.2907 N   0  0  0  0  0  0  0  0  0  0  0  0
    2.6368    0.9254   -0.9801 N   0  0  0  0  0  0  0  0  0  0  0  0
    2.9564   -0.6479    0.3230 Cl  0  0  0  0  0  0  0  0  0  0  0  0
   -3.2492   -1.6029   -0.3675 O   0  0  0  0  0  0  0  0  0  0  0  0
   -4.3380   -0.9883    0.3119 C   0  0  0  0  0  0  0  0  0  0  0  0
   -5.1301   -1.7373    0.3446 H   0  0  0  0  0  0  0  0  0  0  0  0
   -4.6982   -0.1028   -0.2259 H   0  0  0  0  0  0  0  0  0  0  0  0
   -4.0640   -0.7059    1.3355 H   0  0  0  0  0  0  0  0  0  0  0  0
  1  6  1  0  0  0  0
  2  1  2  0  0  0  0
  2  3  1  0  0  0  0
  3  4  2  0  0  0  0
  4  5  1  0  0  0  0
  4  9  1  0  0  0  0
  5 10  1  0  0  0  0
  6 14  1  0  0  0  0
  6  5  2  0  0  0  0
  7  1  1  0  0  0  0
  8  2  1  0  0  0  0
 11  3  1  0  0  0  0
 11 12  1  0  0  0  0
 12 13  1  0  0  0  0
 14 15  1  0  0  0  0
 15 16  1  0  0  0  0
 15 18  1  0  0  0  0
 17 15  1  0  0  0  0
M  RAD  2  11   2  12   2
M  END
