Coordinates from ORCA-job p-CH3O-Ph-N2-X-Cl-B3LYPG-6-31G_dp-scan-d09-49-n400
 OpenBabel08281821013D

 18 18  0  0  0  0  0  0  0  0999 V2000
   -1.2512   -1.6243   -1.4880 C   0  0  0  0  0  0  0  0  0  0  0  0
    0.0011   -1.0939   -1.7386 C   0  0  0  0  0  0  0  0  0  0  0  0
    0.3855    0.0991   -1.1066 C   0  0  0  0  0  0  0  0  0  0  0  0
   -0.5072    0.8024   -0.2916 C   0  0  0  0  0  0  0  0  0  0  0  0
   -1.7779    0.2783   -0.0674 C   0  0  0  0  0  0  0  0  0  0  0  0
   -2.1516   -0.9437   -0.6476 C   0  0  0  0  0  0  0  0  0  0  0  0
   -1.5652   -2.5601   -1.9359 H   0  0  0  0  0  0  0  0  0  0  0  0
    0.6991   -1.6013   -2.3958 H   0  0  0  0  0  0  0  0  0  0  0  0
   -0.2426    1.7606    0.1369 H   0  0  0  0  0  0  0  0  0  0  0  0
   -2.4657    0.8306    0.5609 H   0  0  0  0  0  0  0  0  0  0  0  0
    1.6619    0.6082   -1.4174 N   0  0  0  0  0  0  0  0  0  0  0  0
    2.6357    1.0051   -0.9057 N   0  0  0  0  0  0  0  0  0  0  0  0
    2.7077    0.9189    1.2269 Cl  0  0  0  0  0  0  0  0  0  0  0  0
   -3.3544   -1.5398   -0.4763 O   0  0  0  0  0  0  0  0  0  0  0  0
   -4.3141   -0.9179    0.3726 C   0  0  0  0  0  0  0  0  0  0  0  0
   -5.1844   -1.5746    0.3683 H   0  0  0  0  0  0  0  0  0  0  0  0
   -4.6035    0.0697   -0.0060 H   0  0  0  0  0  0  0  0  0  0  0  0
   -3.9368   -0.8201    1.3974 H   0  0  0  0  0  0  0  0  0  0  0  0
  1  6  1  0  0  0  0
  2  1  2  0  0  0  0
  2  3  1  0  0  0  0
  3  4  2  0  0  0  0
  4  5  1  0  0  0  0
  4  9  1  0  0  0  0
  5 10  1  0  0  0  0
  6 14  1  0  0  0  0
  6  5  2  0  0  0  0
  7  1  1  0  0  0  0
  8  2  1  0  0  0  0
 11  3  1  0  0  0  0
 11 12  2  0  0  0  0
 12 13  1  0  0  0  0
 14 15  1  0  0  0  0
 15 18  1  0  0  0  0
 16 15  1  0  0  0  0
 17 15  1  0  0  0  0
M  END
