Coordinates from ORCA-job p-CH3O-Ph-N2-X-Cl-B3LYPG-6-31G_dp-scan-d09-49-n400
 OpenBabel08281821013D

 18 18  0  0  0  0  0  0  0  0999 V2000
   -1.1380   -1.5894   -1.3362 C   0  0  0  0  0  0  0  0  0  0  0  0
    0.0844   -0.9921   -1.5983 C   0  0  0  0  0  0  0  0  0  0  0  0
    0.3276    0.2930   -1.1011 C   0  0  0  0  0  0  0  0  0  0  0  0
   -0.6397    0.9942   -0.3873 C   0  0  0  0  0  0  0  0  0  0  0  0
   -1.8663    0.3864   -0.1225 C   0  0  0  0  0  0  0  0  0  0  0  0
   -2.1207   -0.9085   -0.5963 C   0  0  0  0  0  0  0  0  0  0  0  0
   -1.3569   -2.5904   -1.6900 H   0  0  0  0  0  0  0  0  0  0  0  0
    0.8497   -1.5132   -2.1624 H   0  0  0  0  0  0  0  0  0  0  0  0
   -0.4287    1.9931   -0.0237 H   0  0  0  0  0  0  0  0  0  0  0  0
   -2.6080    0.9283    0.4511 H   0  0  0  0  0  0  0  0  0  0  0  0
    1.5628    0.9317   -1.4023 N   0  0  0  0  0  0  0  0  0  0  0  0
    2.6259    0.9610   -0.9063 N   0  0  0  0  0  0  0  0  0  0  0  0
    2.8029   -0.1596    0.8393 Cl  0  0  0  0  0  0  0  0  0  0  0  0
   -3.2790   -1.5875   -0.3990 O   0  0  0  0  0  0  0  0  0  0  0  0
   -4.3104   -0.9686    0.3602 C   0  0  0  0  0  0  0  0  0  0  0  0
   -5.1277   -1.6898    0.3969 H   0  0  0  0  0  0  0  0  0  0  0  0
   -4.6630   -0.0462   -0.1172 H   0  0  0  0  0  0  0  0  0  0  0  0
   -3.9782   -0.7453    1.3813 H   0  0  0  0  0  0  0  0  0  0  0  0
  1  6  1  0  0  0  0
  2  1  2  0  0  0  0
  2  3  1  0  0  0  0
  3  4  2  0  0  0  0
  4  5  1  0  0  0  0
  4  9  1  0  0  0  0
  5 10  1  0  0  0  0
  6 14  1  0  0  0  0
  6  5  2  0  0  0  0
  7  1  1  0  0  0  0
  8  2  1  0  0  0  0
 11  3  1  0  0  0  0
 11 12  1  0  0  0  0
 12 13  1  0  0  0  0
 14 15  1  0  0  0  0
 15 16  1  0  0  0  0
 15 18  1  0  0  0  0
 17 15  1  0  0  0  0
M  RAD  2  11   2  12   2
M  END
