Coordinates from ORCA-job p-CH3O-Ph-N2-X-Cl-B3LYPG-6-31G_dp-scan-d09-49-n400
 OpenBabel08281821013D

 18 18  0  0  0  0  0  0  0  0999 V2000
   -1.3464   -1.5891   -1.6268 C   0  0  0  0  0  0  0  0  0  0  0  0
   -0.0359   -1.1793   -1.7668 C   0  0  0  0  0  0  0  0  0  0  0  0
    0.4627   -0.1304   -0.9697 C   0  0  0  0  0  0  0  0  0  0  0  0
   -0.3631    0.5089   -0.0302 C   0  0  0  0  0  0  0  0  0  0  0  0
   -1.6821    0.0925    0.1055 C   0  0  0  0  0  0  0  0  0  0  0  0
   -2.1827   -0.9553   -0.6868 C   0  0  0  0  0  0  0  0  0  0  0  0
   -1.7557   -2.3946   -2.2261 H   0  0  0  0  0  0  0  0  0  0  0  0
    0.6237   -1.6545   -2.4849 H   0  0  0  0  0  0  0  0  0  0  0  0
    0.0191    1.3150    0.5801 H   0  0  0  0  0  0  0  0  0  0  0  0
   -2.3133    0.5902    0.8313 H   0  0  0  0  0  0  0  0  0  0  0  0
    1.8003    0.2058   -1.1881 N   0  0  0  0  0  0  0  0  0  0  0  0
    2.7039    0.8840   -0.8941 N   0  0  0  0  0  0  0  0  0  0  0  0
    2.4310    2.3703    0.6726 Cl  0  0  0  0  0  0  0  0  0  0  0  0
   -3.4455   -1.4256   -0.6232 O   0  0  0  0  0  0  0  0  0  0  0  0
   -4.3582   -0.8372    0.3015 C   0  0  0  0  0  0  0  0  0  0  0  0
   -5.2963   -1.3774    0.1753 H   0  0  0  0  0  0  0  0  0  0  0  0
   -4.5171    0.2250    0.0825 H   0  0  0  0  0  0  0  0  0  0  0  0
   -4.0079   -0.9512    1.3339 H   0  0  0  0  0  0  0  0  0  0  0  0
  1  6  1  0  0  0  0
  2  1  2  0  0  0  0
  2  3  1  0  0  0  0
  3  4  2  0  0  0  0
  4  5  1  0  0  0  0
  4  9  1  0  0  0  0
  5 10  1  0  0  0  0
  6 14  1  0  0  0  0
  6  5  2  0  0  0  0
  7  1  1  0  0  0  0
  8  2  1  0  0  0  0
 11  3  1  0  0  0  0
 11 12  2  0  0  0  0
 12 13  1  0  0  0  0
 14 15  1  0  0  0  0
 15 18  1  0  0  0  0
 16 15  1  0  0  0  0
 17 15  1  0  0  0  0
M  END
