Coordinates from ORCA-job p-CH3O-Ph-N2-X-Cl-B3LYPG-6-31G_dp-scan-d09-49-n400
 OpenBabel08281821013D

 18 18  0  0  0  0  0  0  0  0999 V2000
   -1.0957   -1.5748   -1.2647 C   0  0  0  0  0  0  0  0  0  0  0  0
    0.1198   -0.9589   -1.5133 C   0  0  0  0  0  0  0  0  0  0  0  0
    0.3123    0.3527   -1.0632 C   0  0  0  0  0  0  0  0  0  0  0  0
   -0.6861    1.0465   -0.3891 C   0  0  0  0  0  0  0  0  0  0  0  0
   -1.8998    0.4158   -0.1209 C   0  0  0  0  0  0  0  0  0  0  0  0
   -2.1119   -0.8967   -0.5671 C   0  0  0  0  0  0  0  0  0  0  0  0
   -1.2832   -2.5910   -1.5923 H   0  0  0  0  0  0  0  0  0  0  0  0
    0.9140   -1.4801   -2.0350 H   0  0  0  0  0  0  0  0  0  0  0  0
   -0.4860    2.0520   -0.0406 H   0  0  0  0  0  0  0  0  0  0  0  0
   -2.6634    0.9513    0.4293 H   0  0  0  0  0  0  0  0  0  0  0  0
    1.5286    1.0301   -1.3472 N   0  0  0  0  0  0  0  0  0  0  0  0
    2.6309    0.9324   -0.9497 N   0  0  0  0  0  0  0  0  0  0  0  0
    2.8767   -0.4778    0.5431 Cl  0  0  0  0  0  0  0  0  0  0  0  0
   -3.2573   -1.5987   -0.3772 O   0  0  0  0  0  0  0  0  0  0  0  0
   -4.3247   -0.9818    0.3328 C   0  0  0  0  0  0  0  0  0  0  0  0
   -5.1262   -1.7207    0.3678 H   0  0  0  0  0  0  0  0  0  0  0  0
   -4.6832   -0.0825   -0.1826 H   0  0  0  0  0  0  0  0  0  0  0  0
   -4.0281   -0.7206    1.3558 H   0  0  0  0  0  0  0  0  0  0  0  0
  1  6  1  0  0  0  0
  2  1  2  0  0  0  0
  2  3  1  0  0  0  0
  3  4  2  0  0  0  0
  4  5  1  0  0  0  0
  4  9  1  0  0  0  0
  5 10  1  0  0  0  0
  6 14  1  0  0  0  0
  6  5  2  0  0  0  0
  7  1  1  0  0  0  0
  8  2  1  0  0  0  0
 11  3  1  0  0  0  0
 11 12  1  0  0  0  0
 12 13  1  0  0  0  0
 14 15  1  0  0  0  0
 15 16  1  0  0  0  0
 15 18  1  0  0  0  0
 17 15  1  0  0  0  0
M  RAD  2  11   2  12   2
M  END
