Coordinates from ORCA-job p-CH3O-Ph-N2-X-Cl-B3LYPG-6-31G_dp-scan-d09-49-n400
 OpenBabel08281821013D

 18 17  0  0  0  0  0  0  0  0999 V2000
   -1.3461   -1.5972   -1.6352 C   0  0  0  0  0  0  0  0  0  0  0  0
   -0.0324   -1.2026   -1.7900 C   0  0  0  0  0  0  0  0  0  0  0  0
    0.4732   -0.1567   -0.9965 C   0  0  0  0  0  0  0  0  0  0  0  0
   -0.3324    0.4953   -0.0504 C   0  0  0  0  0  0  0  0  0  0  0  0
   -1.6540    0.0935    0.0992 C   0  0  0  0  0  0  0  0  0  0  0  0
   -2.1681   -0.9518   -0.6887 C   0  0  0  0  0  0  0  0  0  0  0  0
   -1.7709   -2.3999   -2.2274 H   0  0  0  0  0  0  0  0  0  0  0  0
    0.6168   -1.6854   -2.5125 H   0  0  0  0  0  0  0  0  0  0  0  0
    0.1048    1.2969    0.5382 H   0  0  0  0  0  0  0  0  0  0  0  0
   -2.2759    0.5973    0.8290 H   0  0  0  0  0  0  0  0  0  0  0  0
    1.8096    0.1970   -1.1985 N   0  0  0  0  0  0  0  0  0  0  0  0
    2.6589    0.9172   -0.8463 N   0  0  0  0  0  0  0  0  0  0  0  0
    2.1706    2.3420    0.7357 Cl  0  0  0  0  0  0  0  0  0  0  0  0
   -3.4346   -1.4119   -0.6154 O   0  0  0  0  0  0  0  0  0  0  0  0
   -4.3361   -0.8133    0.3135 C   0  0  0  0  0  0  0  0  0  0  0  0
   -5.2795   -1.3459    0.1951 H   0  0  0  0  0  0  0  0  0  0  0  0
   -4.4874    0.2497    0.0925 H   0  0  0  0  0  0  0  0  0  0  0  0
   -3.9799   -0.9270    1.3439 H   0  0  0  0  0  0  0  0  0  0  0  0
  1  6  1  0  0  0  0
  2  1  2  0  0  0  0
  2  3  1  0  0  0  0
  3  4  2  0  0  0  0
  4  5  1  0  0  0  0
  4  9  1  0  0  0  0
  5 10  1  0  0  0  0
  6 14  1  0  0  0  0
  6  5  2  0  0  0  0
  7  1  1  0  0  0  0
  8  2  1  0  0  0  0
 11  3  1  0  0  0  0
 11 12  2  0  0  0  0
 14 15  1  0  0  0  0
 15 18  1  0  0  0  0
 16 15  1  0  0  0  0
 17 15  1  0  0  0  0
M  RAD  2  12   2  13   2
M  END
