Coordinates from ORCA-job p-CH3O-Ph-N2-X-Cl-B3LYPG-6-31G_dp-scan-d09-49-n400
 OpenBabel08281821013D

 18 17  0  0  0  0  0  0  0  0999 V2000
   -1.3796   -1.6922   -1.7195 C   0  0  0  0  0  0  0  0  0  0  0  0
   -0.0695   -1.3640   -1.9315 C   0  0  0  0  0  0  0  0  0  0  0  0
    0.4489   -0.3078   -1.1234 C   0  0  0  0  0  0  0  0  0  0  0  0
   -0.2049    0.4561   -0.1260 C   0  0  0  0  0  0  0  0  0  0  0  0
   -1.5478    0.0474    0.0206 C   0  0  0  0  0  0  0  0  0  0  0  0
   -2.1287   -0.9810   -0.7337 C   0  0  0  0  0  0  0  0  0  0  0  0
   -1.8735   -2.4793   -2.2779 H   0  0  0  0  0  0  0  0  0  0  0  0
    0.5370   -1.8791   -2.6719 H   0  0  0  0  0  0  0  0  0  0  0  0
    0.6457    2.1122    1.1069 H   0  0  0  0  0  0  0  0  0  0  0  0
   -2.1643    0.5580    0.7574 H   0  0  0  0  0  0  0  0  0  0  0  0
    1.7595    0.0337   -1.3214 N   0  0  0  0  0  0  0  0  0  0  0  0
    2.8308    0.3452   -1.4518 N   0  0  0  0  0  0  0  0  0  0  0  0
    1.0422    2.8901    1.6727 Cl  0  0  0  0  0  0  0  0  0  0  0  0
   -3.4066   -1.4032   -0.6243 O   0  0  0  0  0  0  0  0  0  0  0  0
   -4.2632   -0.7710    0.3255 C   0  0  0  0  0  0  0  0  0  0  0  0
   -5.2252   -1.2765    0.2381 H   0  0  0  0  0  0  0  0  0  0  0  0
   -4.3859    0.2943    0.1013 H   0  0  0  0  0  0  0  0  0  0  0  0
   -3.8783   -0.8860    1.3448 H   0  0  0  0  0  0  0  0  0  0  0  0
  1  6  1  0  0  0  0
  2  1  2  0  0  0  0
  2  3  1  0  0  0  0
  3  4  2  0  0  0  0
  4  5  1  0  0  0  0
  5 10  1  0  0  0  0
  6 14  1  0  0  0  0
  6  5  2  0  0  0  0
  7  1  1  0  0  0  0
  8  2  1  0  0  0  0
  9 13  1  0  0  0  0
 11  3  1  0  0  0  0
 12 11  1  0  0  0  0
 14 15  1  0  0  0  0
 15 18  1  0  0  0  0
 16 15  1  0  0  0  0
 17 15  1  0  0  0  0
M  RAD  3   4   2  11   2  12   3
M  END
