Coordinates from ORCA-job p-CH3O-Ph-N2-X-Cl-B3LYPG-6-31G_dp-scan-d09-49-n400
 OpenBabel08281821013D

 18 18  0  0  0  0  0  0  0  0999 V2000
   -1.0788   -1.5689   -1.2303 C   0  0  0  0  0  0  0  0  0  0  0  0
    0.1352   -0.9469   -1.4686 C   0  0  0  0  0  0  0  0  0  0  0  0
    0.3082    0.3743   -1.0359 C   0  0  0  0  0  0  0  0  0  0  0  0
   -0.7062    1.0661   -0.3844 C   0  0  0  0  0  0  0  0  0  0  0  0
   -1.9164    0.4282   -0.1198 C   0  0  0  0  0  0  0  0  0  0  0  0
   -2.1102   -0.8916   -0.5535 C   0  0  0  0  0  0  0  0  0  0  0  0
   -1.2541   -2.5902   -1.5488 H   0  0  0  0  0  0  0  0  0  0  0  0
    0.9415   -1.4679   -1.9709 H   0  0  0  0  0  0  0  0  0  0  0  0
   -0.5134    2.0763   -0.0465 H   0  0  0  0  0  0  0  0  0  0  0  0
   -2.6914    0.9625    0.4154 H   0  0  0  0  0  0  0  0  0  0  0  0
    1.5160    1.0667   -1.3068 N   0  0  0  0  0  0  0  0  0  0  0  0
    2.6352    0.9256   -0.9724 N   0  0  0  0  0  0  0  0  0  0  0  0
    2.9329   -0.6069    0.3827 Cl  0  0  0  0  0  0  0  0  0  0  0  0
   -3.2508   -1.6019   -0.3699 O   0  0  0  0  0  0  0  0  0  0  0  0
   -4.3341   -0.9869    0.3177 C   0  0  0  0  0  0  0  0  0  0  0  0
   -5.1286   -1.7334    0.3510 H   0  0  0  0  0  0  0  0  0  0  0  0
   -4.6941   -0.0978   -0.2141 H   0  0  0  0  0  0  0  0  0  0  0  0
   -4.0542   -0.7100    1.3412 H   0  0  0  0  0  0  0  0  0  0  0  0
  1  6  1  0  0  0  0
  2  1  2  0  0  0  0
  2  3  1  0  0  0  0
  3  4  2  0  0  0  0
  4  5  1  0  0  0  0
  4  9  1  0  0  0  0
  5 10  1  0  0  0  0
  6 14  1  0  0  0  0
  6  5  2  0  0  0  0
  7  1  1  0  0  0  0
  8  2  1  0  0  0  0
 11  3  1  0  0  0  0
 11 12  1  0  0  0  0
 12 13  1  0  0  0  0
 14 15  1  0  0  0  0
 15 16  1  0  0  0  0
 15 18  1  0  0  0  0
 17 15  1  0  0  0  0
M  RAD  2  11   2  12   2
M  END
