Coordinates from ORCA-job p-CH3O-Ph-N2-X-Cl-B3LYPG-6-31G_dp-scan-d09-49-n400
 OpenBabel08281821013D

 18 17  0  0  0  0  0  0  0  0999 V2000
   -1.3459   -1.6055   -1.6422 C   0  0  0  0  0  0  0  0  0  0  0  0
   -0.0301   -1.2234   -1.8108 C   0  0  0  0  0  0  0  0  0  0  0  0
    0.4788   -0.1788   -1.0201 C   0  0  0  0  0  0  0  0  0  0  0  0
   -0.3080    0.4854   -0.0688 C   0  0  0  0  0  0  0  0  0  0  0  0
   -1.6312    0.0949    0.0925 C   0  0  0  0  0  0  0  0  0  0  0  0
   -2.1558   -0.9495   -0.6903 C   0  0  0  0  0  0  0  0  0  0  0  0
   -1.7837   -2.4064   -2.2273 H   0  0  0  0  0  0  0  0  0  0  0  0
    0.6100   -1.7132   -2.5369 H   0  0  0  0  0  0  0  0  0  0  0  0
    0.1840    1.2866    0.4988 H   0  0  0  0  0  0  0  0  0  0  0  0
   -2.2461    0.6038    0.8249 H   0  0  0  0  0  0  0  0  0  0  0  0
    1.8128    0.1969   -1.2026 N   0  0  0  0  0  0  0  0  0  0  0  0
    2.6174    0.9434   -0.8086 N   0  0  0  0  0  0  0  0  0  0  0  0
    1.9587    2.3155    0.7972 Cl  0  0  0  0  0  0  0  0  0  0  0  0
   -3.4250   -1.4016   -0.6084 O   0  0  0  0  0  0  0  0  0  0  0  0
   -4.3170   -0.7938    0.3236 C   0  0  0  0  0  0  0  0  0  0  0  0
   -5.2646   -1.3206    0.2127 H   0  0  0  0  0  0  0  0  0  0  0  0
   -4.4624    0.2694    0.0999 H   0  0  0  0  0  0  0  0  0  0  0  0
   -3.9554   -0.9060    1.3523 H   0  0  0  0  0  0  0  0  0  0  0  0
  1  6  1  0  0  0  0
  2  1  2  0  0  0  0
  2  3  1  0  0  0  0
  3  4  2  0  0  0  0
  4  5  1  0  0  0  0
  4  9  1  0  0  0  0
  5 10  1  0  0  0  0
  6 14  1  0  0  0  0
  6  5  2  0  0  0  0
  7  1  1  0  0  0  0
  8  2  1  0  0  0  0
 11  3  1  0  0  0  0
 11 12  2  0  0  0  0
 14 15  1  0  0  0  0
 15 18  1  0  0  0  0
 16 15  1  0  0  0  0
 17 15  1  0  0  0  0
M  RAD  2  12   2  13   2
M  END
