Coordinates from ORCA-job p-CH3O-Ph-N2-X-Cl-B3LYPG-6-31G_dp-scan-d09-49-n400
 OpenBabel08281821013D

 18 18  0  0  0  0  0  0  0  0999 V2000
   -1.1877   -1.6082   -1.4044 C   0  0  0  0  0  0  0  0  0  0  0  0
    0.0454   -1.0367   -1.6705 C   0  0  0  0  0  0  0  0  0  0  0  0
    0.3504    0.2122   -1.1155 C   0  0  0  0  0  0  0  0  0  0  0  0
   -0.5836    0.9185   -0.3582 C   0  0  0  0  0  0  0  0  0  0  0  0
   -1.8286    0.3440   -0.1067 C   0  0  0  0  0  0  0  0  0  0  0  0
   -2.1336   -0.9249   -0.6199 C   0  0  0  0  0  0  0  0  0  0  0  0
   -1.4467   -2.5856   -1.7949 H   0  0  0  0  0  0  0  0  0  0  0  0
    0.7790   -1.5545   -2.2788 H   0  0  0  0  0  0  0  0  0  0  0  0
   -0.3555    1.9069    0.0240 H   0  0  0  0  0  0  0  0  0  0  0  0
   -2.5468    0.8932    0.4895 H   0  0  0  0  0  0  0  0  0  0  0  0
    1.6013    0.8040   -1.4303 N   0  0  0  0  0  0  0  0  0  0  0  0
    2.6241    0.9993   -0.8942 N   0  0  0  0  0  0  0  0  0  0  0  0
    2.7741    0.2641    1.0732 Cl  0  0  0  0  0  0  0  0  0  0  0  0
   -3.3099   -1.5714   -0.4273 O   0  0  0  0  0  0  0  0  0  0  0  0
   -4.3082   -0.9481    0.3727 C   0  0  0  0  0  0  0  0  0  0  0  0
   -5.1476   -1.6439    0.3973 H   0  0  0  0  0  0  0  0  0  0  0  0
   -4.6384    0.0018   -0.0648 H   0  0  0  0  0  0  0  0  0  0  0  0
   -3.9512   -0.7736    1.3948 H   0  0  0  0  0  0  0  0  0  0  0  0
  1  6  1  0  0  0  0
  2  1  2  0  0  0  0
  2  3  1  0  0  0  0
  3  4  2  0  0  0  0
  4  5  1  0  0  0  0
  4  9  1  0  0  0  0
  5 10  1  0  0  0  0
  6 14  1  0  0  0  0
  6  5  2  0  0  0  0
  7  1  1  0  0  0  0
  8  2  1  0  0  0  0
 11  3  1  0  0  0  0
 11 12  2  0  0  0  0
 12 13  1  0  0  0  0
 14 15  1  0  0  0  0
 15 16  1  0  0  0  0
 15 18  1  0  0  0  0
 17 15  1  0  0  0  0
M  END
