Coordinates from ORCA-job p-CH3O-Ph-N2-X-Cl-B3LYPG-6-31G_dp-scan-d09-49-n400
 OpenBabel08281821013D

 18 18  0  0  0  0  0  0  0  0999 V2000
   -1.1461   -1.5927   -1.3479 C   0  0  0  0  0  0  0  0  0  0  0  0
    0.0778   -0.9994   -1.6118 C   0  0  0  0  0  0  0  0  0  0  0  0
    0.3309    0.2802   -1.1054 C   0  0  0  0  0  0  0  0  0  0  0  0
   -0.6306    0.9824   -0.3841 C   0  0  0  0  0  0  0  0  0  0  0  0
   -1.8600    0.3799   -0.1206 C   0  0  0  0  0  0  0  0  0  0  0  0
   -2.1227   -0.9112   -0.6005 C   0  0  0  0  0  0  0  0  0  0  0  0
   -1.3715   -2.5902   -1.7073 H   0  0  0  0  0  0  0  0  0  0  0  0
    0.8377   -1.5203   -2.1836 H   0  0  0  0  0  0  0  0  0  0  0  0
   -0.4161    1.9797   -0.0174 H   0  0  0  0  0  0  0  0  0  0  0  0
   -2.5976    0.9230    0.4572 H   0  0  0  0  0  0  0  0  0  0  0  0
    1.5686    0.9125   -1.4096 N   0  0  0  0  0  0  0  0  0  0  0  0
    2.6251    0.9678   -0.9024 N   0  0  0  0  0  0  0  0  0  0  0  0
    2.7957   -0.0931    0.8846 Cl  0  0  0  0  0  0  0  0  0  0  0  0
   -3.2837   -1.5852   -0.4033 O   0  0  0  0  0  0  0  0  0  0  0  0
   -4.3094   -0.9654    0.3632 C   0  0  0  0  0  0  0  0  0  0  0  0
   -5.1303   -1.6826    0.3983 H   0  0  0  0  0  0  0  0  0  0  0  0
   -4.6588   -0.0384   -0.1077 H   0  0  0  0  0  0  0  0  0  0  0  0
   -3.9724   -0.7499    1.3843 H   0  0  0  0  0  0  0  0  0  0  0  0
  1  6  1  0  0  0  0
  2  1  2  0  0  0  0
  2  3  1  0  0  0  0
  3  4  2  0  0  0  0
  4  5  1  0  0  0  0
  4  9  1  0  0  0  0
  5 10  1  0  0  0  0
  6 14  1  0  0  0  0
  6  5  2  0  0  0  0
  7  1  1  0  0  0  0
  8  2  1  0  0  0  0
 11  3  1  0  0  0  0
 11 12  1  0  0  0  0
 12 13  1  0  0  0  0
 14 15  1  0  0  0  0
 15 16  1  0  0  0  0
 15 18  1  0  0  0  0
 17 15  1  0  0  0  0
M  RAD  2  11   2  12   2
M  END
