Coordinates from ORCA-job p-CH3O-Ph-N2-X-Cl-B3LYPG-6-31G_dp-scan-d09-49-n400
 OpenBabel08281821013D

 18 18  0  0  0  0  0  0  0  0999 V2000
   -1.2494   -1.6241   -1.4857 C   0  0  0  0  0  0  0  0  0  0  0  0
    0.0023   -1.0925   -1.7376 C   0  0  0  0  0  0  0  0  0  0  0  0
    0.3845    0.1022   -1.1080 C   0  0  0  0  0  0  0  0  0  0  0  0
   -0.5092    0.8061   -0.2947 C   0  0  0  0  0  0  0  0  0  0  0  0
   -1.7792    0.2807   -0.0692 C   0  0  0  0  0  0  0  0  0  0  0  0
   -2.1508   -0.9431   -0.6470 C   0  0  0  0  0  0  0  0  0  0  0  0
   -1.5618   -2.5614   -1.9315 H   0  0  0  0  0  0  0  0  0  0  0  0
    0.7011   -1.6005   -2.3935 H   0  0  0  0  0  0  0  0  0  0  0  0
   -0.2452    1.7654    0.1318 H   0  0  0  0  0  0  0  0  0  0  0  0
   -2.4677    0.8331    0.5581 H   0  0  0  0  0  0  0  0  0  0  0  0
    1.6600    0.6151   -1.4192 N   0  0  0  0  0  0  0  0  0  0  0  0
    2.6345    1.0062   -0.9038 N   0  0  0  0  0  0  0  0  0  0  0  0
    2.7067    0.8970    1.2265 Cl  0  0  0  0  0  0  0  0  0  0  0  0
   -3.3528   -1.5408   -0.4746 O   0  0  0  0  0  0  0  0  0  0  0  0
   -4.3133   -0.9188    0.3733 C   0  0  0  0  0  0  0  0  0  0  0  0
   -5.1827   -1.5767    0.3702 H   0  0  0  0  0  0  0  0  0  0  0  0
   -4.6042    0.0677   -0.0070 H   0  0  0  0  0  0  0  0  0  0  0  0
   -3.9361   -0.8186    1.3979 H   0  0  0  0  0  0  0  0  0  0  0  0
  1  6  1  0  0  0  0
  2  1  2  0  0  0  0
  2  3  1  0  0  0  0
  3  4  2  0  0  0  0
  4  5  1  0  0  0  0
  4  9  1  0  0  0  0
  5 10  1  0  0  0  0
  6 14  1  0  0  0  0
  6  5  2  0  0  0  0
  7  1  1  0  0  0  0
  8  2  1  0  0  0  0
 11  3  1  0  0  0  0
 11 12  2  0  0  0  0
 12 13  1  0  0  0  0
 14 15  1  0  0  0  0
 15 18  1  0  0  0  0
 16 15  1  0  0  0  0
 17 15  1  0  0  0  0
M  END
