Coordinates from ORCA-job p-CH3O-Ph-N2-X-Cl-B3LYPG-6-31G_dp-scan-d09-49-n400
 OpenBabel08281821013D

 18 18  0  0  0  0  0  0  0  0999 V2000
   -1.0588   -1.5646   -1.1763 C   0  0  0  0  0  0  0  0  0  0  0  0
    0.1552   -0.9375   -1.3967 C   0  0  0  0  0  0  0  0  0  0  0  0
    0.3062    0.3944   -0.9836 C   0  0  0  0  0  0  0  0  0  0  0  0
   -0.7322    1.0859   -0.3683 C   0  0  0  0  0  0  0  0  0  0  0  0
   -1.9407    0.4426   -0.1152 C   0  0  0  0  0  0  0  0  0  0  0  0
   -2.1109   -0.8868   -0.5312 C   0  0  0  0  0  0  0  0  0  0  0  0
   -1.2199   -2.5915   -1.4846 H   0  0  0  0  0  0  0  0  0  0  0  0
    0.9761   -1.4589   -1.8730 H   0  0  0  0  0  0  0  0  0  0  0  0
   -0.5507    2.1042   -0.0505 H   0  0  0  0  0  0  0  0  0  0  0  0
   -2.7328    0.9781    0.3928 H   0  0  0  0  0  0  0  0  0  0  0  0
    1.5005    1.1090   -1.2300 N   0  0  0  0  0  0  0  0  0  0  0  0
    2.6422    0.9351   -1.0046 N   0  0  0  0  0  0  0  0  0  0  0  0
    3.0543   -0.7635    0.1105 Cl  0  0  0  0  0  0  0  0  0  0  0  0
   -3.2470   -1.6053   -0.3603 O   0  0  0  0  0  0  0  0  0  0  0  0
   -4.3536   -0.9905    0.2903 C   0  0  0  0  0  0  0  0  0  0  0  0
   -5.1394   -1.7462    0.3195 H   0  0  0  0  0  0  0  0  0  0  0  0
   -4.7113   -0.1163   -0.2672 H   0  0  0  0  0  0  0  0  0  0  0  0
   -4.1006   -0.6910    1.3143 H   0  0  0  0  0  0  0  0  0  0  0  0
  1  6  1  0  0  0  0
  2  1  2  0  0  0  0
  2  3  1  0  0  0  0
  3  4  2  0  0  0  0
  4  5  1  0  0  0  0
  4  9  1  0  0  0  0
  5 10  1  0  0  0  0
  6 14  1  0  0  0  0
  6  5  2  0  0  0  0
  7  1  1  0  0  0  0
  8  2  1  0  0  0  0
 11 12  1  0  0  0  0
 11  3  1  0  0  0  0
 12 13  1  0  0  0  0
 14 15  1  0  0  0  0
 15 16  1  0  0  0  0
 15 18  1  0  0  0  0
 17 15  1  0  0  0  0
M  RAD  2  11   2  12   2
M  END
