Coordinates from ORCA-job p-CH3O-Ph-N2-X-Cl-B3LYPG-6-31G_dp-scan-d09-49-n400
 OpenBabel08281821013D

 18 18  0  0  0  0  0  0  0  0999 V2000
   -1.1817   -1.6062   -1.3960 C   0  0  0  0  0  0  0  0  0  0  0  0
    0.0500   -1.0312   -1.6621 C   0  0  0  0  0  0  0  0  0  0  0  0
    0.3474    0.2224   -1.1139 C   0  0  0  0  0  0  0  0  0  0  0  0
   -0.5907    0.9282   -0.3620 C   0  0  0  0  0  0  0  0  0  0  0  0
   -1.8333    0.3493   -0.1087 C   0  0  0  0  0  0  0  0  0  0  0  0
   -2.1321   -0.9232   -0.6168 C   0  0  0  0  0  0  0  0  0  0  0  0
   -1.4355   -2.5868   -1.7818 H   0  0  0  0  0  0  0  0  0  0  0  0
    0.7873   -1.5494   -2.2653 H   0  0  0  0  0  0  0  0  0  0  0  0
   -0.3658    1.9185    0.0174 H   0  0  0  0  0  0  0  0  0  0  0  0
   -2.5545    0.8976    0.4846 H   0  0  0  0  0  0  0  0  0  0  0  0
    1.5962    0.8202   -1.4284 N   0  0  0  0  0  0  0  0  0  0  0  0
    2.6243    0.9963   -0.8956 N   0  0  0  0  0  0  0  0  0  0  0  0
    2.7819    0.2092    1.0479 Cl  0  0  0  0  0  0  0  0  0  0  0  0
   -3.3061   -1.5739   -0.4233 O   0  0  0  0  0  0  0  0  0  0  0  0
   -4.3087   -0.9506    0.3712 C   0  0  0  0  0  0  0  0  0  0  0  0
   -5.1454   -1.6496    0.3974 H   0  0  0  0  0  0  0  0  0  0  0  0
   -4.6417   -0.0042   -0.0718 H   0  0  0  0  0  0  0  0  0  0  0  0
   -3.9549   -0.7696    1.3933 H   0  0  0  0  0  0  0  0  0  0  0  0
  1  6  1  0  0  0  0
  2  1  2  0  0  0  0
  2  3  1  0  0  0  0
  3  4  2  0  0  0  0
  4  5  1  0  0  0  0
  4  9  1  0  0  0  0
  5 10  1  0  0  0  0
  6 14  1  0  0  0  0
  6  5  2  0  0  0  0
  7  1  1  0  0  0  0
  8  2  1  0  0  0  0
 11  3  1  0  0  0  0
 11 12  2  0  0  0  0
 12 13  1  0  0  0  0
 14 15  1  0  0  0  0
 15 16  1  0  0  0  0
 15 18  1  0  0  0  0
 17 15  1  0  0  0  0
M  END
