Coordinates from ORCA-job p-CH3O-Ph-N2-X-Cl-B3LYPG-6-31G_dp-scan-d09-49-n400
 OpenBabel08281821013D

 18 17  0  0  0  0  0  0  0  0999 V2000
   -1.3461   -1.5976   -1.6355 C   0  0  0  0  0  0  0  0  0  0  0  0
   -0.0323   -1.2033   -1.7908 C   0  0  0  0  0  0  0  0  0  0  0  0
    0.4735   -0.1575   -0.9975 C   0  0  0  0  0  0  0  0  0  0  0  0
   -0.3315    0.4949   -0.0512 C   0  0  0  0  0  0  0  0  0  0  0  0
   -1.6531    0.0936    0.0989 C   0  0  0  0  0  0  0  0  0  0  0  0
   -2.1676   -0.9517   -0.6887 C   0  0  0  0  0  0  0  0  0  0  0  0
   -1.7714   -2.4002   -2.2274 H   0  0  0  0  0  0  0  0  0  0  0  0
    0.6165   -1.6865   -2.5134 H   0  0  0  0  0  0  0  0  0  0  0  0
    0.1076    1.2965    0.5367 H   0  0  0  0  0  0  0  0  0  0  0  0
   -2.2747    0.5976    0.8288 H   0  0  0  0  0  0  0  0  0  0  0  0
    1.8098    0.1969   -1.1988 N   0  0  0  0  0  0  0  0  0  0  0  0
    2.6573    0.9183   -0.8448 N   0  0  0  0  0  0  0  0  0  0  0  0
    2.1622    2.3407    0.7381 Cl  0  0  0  0  0  0  0  0  0  0  0  0
   -3.4343   -1.4115   -0.6151 O   0  0  0  0  0  0  0  0  0  0  0  0
   -4.3353   -0.8125    0.3139 C   0  0  0  0  0  0  0  0  0  0  0  0
   -5.2789   -1.3449    0.1958 H   0  0  0  0  0  0  0  0  0  0  0  0
   -4.4864    0.2504    0.0928 H   0  0  0  0  0  0  0  0  0  0  0  0
   -3.9789   -0.9261    1.3443 H   0  0  0  0  0  0  0  0  0  0  0  0
  1  6  1  0  0  0  0
  2  1  2  0  0  0  0
  2  3  1  0  0  0  0
  3  4  2  0  0  0  0
  4  5  1  0  0  0  0
  4  9  1  0  0  0  0
  5 10  1  0  0  0  0
  6 14  1  0  0  0  0
  6  5  2  0  0  0  0
  7  1  1  0  0  0  0
  8  2  1  0  0  0  0
 11  3  1  0  0  0  0
 11 12  2  0  0  0  0
 14 15  1  0  0  0  0
 15 18  1  0  0  0  0
 16 15  1  0  0  0  0
 17 15  1  0  0  0  0
M  RAD  2  12   2  13   2
M  END
