Coordinates from ORCA-job p-CH3O-Ph-N2-X-Cl-B3LYPG-6-31G_dp-scan-d09-49-n400
 OpenBabel08281821013D

 18 18  0  0  0  0  0  0  0  0999 V2000
   -1.1146   -1.5810   -1.2992 C   0  0  0  0  0  0  0  0  0  0  0  0
    0.1036   -0.9730   -1.5554 C   0  0  0  0  0  0  0  0  0  0  0  0
    0.3185    0.3273   -1.0848 C   0  0  0  0  0  0  0  0  0  0  0  0
   -0.6651    1.0244   -0.3917 C   0  0  0  0  0  0  0  0  0  0  0  0
   -1.8841    0.4033   -0.1235 C   0  0  0  0  0  0  0  0  0  0  0  0
   -2.1153   -0.9017   -0.5817 C   0  0  0  0  0  0  0  0  0  0  0  0
   -1.3159   -2.5909   -1.6380 H   0  0  0  0  0  0  0  0  0  0  0  0
    0.8845   -1.4944   -2.0972 H   0  0  0  0  0  0  0  0  0  0  0  0
   -0.4599    2.0268   -0.0355 H   0  0  0  0  0  0  0  0  0  0  0  0
   -2.6373    0.9414    0.4385 H   0  0  0  0  0  0  0  0  0  0  0  0
    1.5444    0.9869   -1.3771 N   0  0  0  0  0  0  0  0  0  0  0  0
    2.6281    0.9427   -0.9258 N   0  0  0  0  0  0  0  0  0  0  0  0
    2.8320   -0.3380    0.6918 Cl  0  0  0  0  0  0  0  0  0  0  0  0
   -3.2662   -1.5939   -0.3869 O   0  0  0  0  0  0  0  0  0  0  0  0
   -4.3162   -0.9764    0.3477 C   0  0  0  0  0  0  0  0  0  0  0  0
   -5.1244   -1.7078    0.3851 H   0  0  0  0  0  0  0  0  0  0  0  0
   -4.6739   -0.0667   -0.1498 H   0  0  0  0  0  0  0  0  0  0  0  0
   -4.0014   -0.7321    1.3694 H   0  0  0  0  0  0  0  0  0  0  0  0
  1  6  1  0  0  0  0
  2  1  2  0  0  0  0
  2  3  1  0  0  0  0
  3  4  2  0  0  0  0
  4  5  1  0  0  0  0
  4  9  1  0  0  0  0
  5 10  1  0  0  0  0
  6 14  1  0  0  0  0
  6  5  2  0  0  0  0
  7  1  1  0  0  0  0
  8  2  1  0  0  0  0
 11  3  1  0  0  0  0
 11 12  1  0  0  0  0
 12 13  1  0  0  0  0
 14 15  1  0  0  0  0
 15 16  1  0  0  0  0
 15 18  1  0  0  0  0
 17 15  1  0  0  0  0
M  RAD  2  11   2  12   2
M  END
