Coordinates from ORCA-job p-CH3O-Ph-N2-X-Cl-B3LYPG-6-31G_dp-scan-d09-49-n400
 OpenBabel08281821013D

 18 17  0  0  0  0  0  0  0  0999 V2000
   -1.3852   -1.7029   -1.7255 C   0  0  0  0  0  0  0  0  0  0  0  0
   -0.0751   -1.3771   -1.9408 C   0  0  0  0  0  0  0  0  0  0  0  0
    0.4448   -0.3192   -1.1354 C   0  0  0  0  0  0  0  0  0  0  0  0
   -0.2035    0.4498   -0.1383 C   0  0  0  0  0  0  0  0  0  0  0  0
   -1.5476    0.0419    0.0103 C   0  0  0  0  0  0  0  0  0  0  0  0
   -2.1311   -0.9877   -0.7398 C   0  0  0  0  0  0  0  0  0  0  0  0
   -1.8816   -2.4908   -2.2806 H   0  0  0  0  0  0  0  0  0  0  0  0
    0.5295   -1.8948   -2.6810 H   0  0  0  0  0  0  0  0  0  0  0  0
    0.6936    2.2242    1.1984 H   0  0  0  0  0  0  0  0  0  0  0  0
   -2.1635    0.5545    0.7465 H   0  0  0  0  0  0  0  0  0  0  0  0
    1.7559    0.0205   -1.3354 N   0  0  0  0  0  0  0  0  0  0  0  0
    2.8275    0.3314   -1.4668 N   0  0  0  0  0  0  0  0  0  0  0  0
    1.0337    2.9034    1.6997 Cl  0  0  0  0  0  0  0  0  0  0  0  0
   -3.4098   -1.4089   -0.6270 O   0  0  0  0  0  0  0  0  0  0  0  0
   -4.2632   -0.7737    0.3232 C   0  0  0  0  0  0  0  0  0  0  0  0
   -5.2259   -1.2787    0.2400 H   0  0  0  0  0  0  0  0  0  0  0  0
   -4.3860    0.2912    0.0966 H   0  0  0  0  0  0  0  0  0  0  0  0
   -3.8758   -0.8857    1.3419 H   0  0  0  0  0  0  0  0  0  0  0  0
  1  6  1  0  0  0  0
  2  1  2  0  0  0  0
  2  3  1  0  0  0  0
  3  4  2  0  0  0  0
  4  5  1  0  0  0  0
  5 10  1  0  0  0  0
  6 14  1  0  0  0  0
  6  5  2  0  0  0  0
  7  1  1  0  0  0  0
  8  2  1  0  0  0  0
  9 13  1  0  0  0  0
 11  3  1  0  0  0  0
 12 11  1  0  0  0  0
 14 15  1  0  0  0  0
 15 18  1  0  0  0  0
 16 15  1  0  0  0  0
 17 15  1  0  0  0  0
M  RAD  3   4   2  11   2  12   3
M  END
