Coordinates from ORCA-job p-CH3O-Ph-N2-X-Cl-B3LYPG-6-31G_dp-scan-d09-49-n400
 OpenBabel08281821013D

 18 18  0  0  0  0  0  0  0  0999 V2000
   -1.0919   -1.5734   -1.2572 C   0  0  0  0  0  0  0  0  0  0  0  0
    0.1232   -0.9561   -1.5037 C   0  0  0  0  0  0  0  0  0  0  0  0
    0.3112    0.3577   -1.0577 C   0  0  0  0  0  0  0  0  0  0  0  0
   -0.6906    1.0510   -0.3883 C   0  0  0  0  0  0  0  0  0  0  0  0
   -1.9033    0.4185   -0.1206 C   0  0  0  0  0  0  0  0  0  0  0  0
   -2.1114   -0.8956   -0.5641 C   0  0  0  0  0  0  0  0  0  0  0  0
   -1.2766   -2.5909   -1.5828 H   0  0  0  0  0  0  0  0  0  0  0  0
    0.9201   -1.4773   -2.0212 H   0  0  0  0  0  0  0  0  0  0  0  0
   -0.4920    2.0575   -0.0419 H   0  0  0  0  0  0  0  0  0  0  0  0
   -2.6694    0.9536    0.4266 H   0  0  0  0  0  0  0  0  0  0  0  0
    1.5256    1.0386   -1.3392 N   0  0  0  0  0  0  0  0  0  0  0  0
    2.6318    0.9305   -0.9548 N   0  0  0  0  0  0  0  0  0  0  0  0
    2.8882   -0.5068    0.5095 Cl  0  0  0  0  0  0  0  0  0  0  0  0
   -3.2558   -1.5995   -0.3755 O   0  0  0  0  0  0  0  0  0  0  0  0
   -4.3266   -0.9830    0.3296 C   0  0  0  0  0  0  0  0  0  0  0  0
   -5.1267   -1.7235    0.3641 H   0  0  0  0  0  0  0  0  0  0  0  0
   -4.6854   -0.0858   -0.1894 H   0  0  0  0  0  0  0  0  0  0  0  0
   -4.0338   -0.7184    1.3528 H   0  0  0  0  0  0  0  0  0  0  0  0
  1  6  1  0  0  0  0
  2  1  2  0  0  0  0
  2  3  1  0  0  0  0
  3  4  2  0  0  0  0
  4  5  1  0  0  0  0
  4  9  1  0  0  0  0
  5 10  1  0  0  0  0
  6 14  1  0  0  0  0
  6  5  2  0  0  0  0
  7  1  1  0  0  0  0
  8  2  1  0  0  0  0
 11  3  1  0  0  0  0
 11 12  1  0  0  0  0
 12 13  1  0  0  0  0
 14 15  1  0  0  0  0
 15 16  1  0  0  0  0
 15 18  1  0  0  0  0
 17 15  1  0  0  0  0
M  RAD  2  11   2  12   2
M  END
