Coordinates from ORCA-job p-CH3O-Ph-N2-X-Cl-B3LYPG-6-31G_dp-scan-d09-49-n400
 OpenBabel08281821013D

 18 17  0  0  0  0  0  0  0  0999 V2000
   -1.3467   -1.6133   -1.6513 C   0  0  0  0  0  0  0  0  0  0  0  0
   -0.0288   -1.2455   -1.8323 C   0  0  0  0  0  0  0  0  0  0  0  0
    0.4811   -0.2028   -1.0414 C   0  0  0  0  0  0  0  0  0  0  0  0
   -0.2824    0.4762   -0.0844 C   0  0  0  0  0  0  0  0  0  0  0  0
   -1.6079    0.0958    0.0859 C   0  0  0  0  0  0  0  0  0  0  0  0
   -2.1438   -0.9464   -0.6929 C   0  0  0  0  0  0  0  0  0  0  0  0
   -1.7983   -2.4109   -2.2302 H   0  0  0  0  0  0  0  0  0  0  0  0
    0.6025   -1.7420   -2.5617 H   0  0  0  0  0  0  0  0  0  0  0  0
    0.2748    1.2871    0.4676 H   0  0  0  0  0  0  0  0  0  0  0  0
   -2.2170    0.6088    0.8208 H   0  0  0  0  0  0  0  0  0  0  0  0
    1.8135    0.1955   -1.1991 N   0  0  0  0  0  0  0  0  0  0  0  0
    2.5796    0.9590   -0.7759 N   0  0  0  0  0  0  0  0  0  0  0  0
    1.7409    2.2983    0.8534 Cl  0  0  0  0  0  0  0  0  0  0  0  0
   -3.4156   -1.3901   -0.6036 O   0  0  0  0  0  0  0  0  0  0  0  0
   -4.2979   -0.7756    0.3333 C   0  0  0  0  0  0  0  0  0  0  0  0
   -5.2496   -1.2963    0.2287 H   0  0  0  0  0  0  0  0  0  0  0  0
   -4.4375    0.2883    0.1094 H   0  0  0  0  0  0  0  0  0  0  0  0
   -3.9304   -0.8889    1.3597 H   0  0  0  0  0  0  0  0  0  0  0  0
  1  6  1  0  0  0  0
  2  1  2  0  0  0  0
  2  3  1  0  0  0  0
  3  4  2  0  0  0  0
  4  5  1  0  0  0  0
  4  9  1  0  0  0  0
  5 10  1  0  0  0  0
  6 14  1  0  0  0  0
  6  5  2  0  0  0  0
  7  1  1  0  0  0  0
  8  2  1  0  0  0  0
 11  3  1  0  0  0  0
 11 12  2  0  0  0  0
 14 15  1  0  0  0  0
 15 18  1  0  0  0  0
 16 15  1  0  0  0  0
 17 15  1  0  0  0  0
M  RAD  2  12   2  13   2
M  END
