Coordinates from ORCA-job p-CH3O-Ph-N2-X-Cl-B3LYPG-6-31G_dp-scan-d09-49-n400
 OpenBabel08281821013D

 18 18  0  0  0  0  0  0  0  0999 V2000
   -1.2413   -1.6226   -1.4753 C   0  0  0  0  0  0  0  0  0  0  0  0
    0.0075   -1.0851   -1.7305 C   0  0  0  0  0  0  0  0  0  0  0  0
    0.3797    0.1175   -1.1110 C   0  0  0  0  0  0  0  0  0  0  0  0
   -0.5193    0.8226   -0.3056 C   0  0  0  0  0  0  0  0  0  0  0  0
   -1.7859    0.2902   -0.0760 C   0  0  0  0  0  0  0  0  0  0  0  0
   -2.1485   -0.9408   -0.6437 C   0  0  0  0  0  0  0  0  0  0  0  0
   -1.5464   -2.5661   -1.9129 H   0  0  0  0  0  0  0  0  0  0  0  0
    0.7105   -1.5948   -2.3805 H   0  0  0  0  0  0  0  0  0  0  0  0
   -0.2616    1.7875    0.1128 H   0  0  0  0  0  0  0  0  0  0  0  0
   -2.4786    0.8430    0.5465 H   0  0  0  0  0  0  0  0  0  0  0  0
    1.6517    0.6418   -1.4238 N   0  0  0  0  0  0  0  0  0  0  0  0
    2.6319    1.0083   -0.9010 N   0  0  0  0  0  0  0  0  0  0  0  0
    2.7175    0.8047    1.2182 Cl  0  0  0  0  0  0  0  0  0  0  0  0
   -3.3468   -1.5456   -0.4674 O   0  0  0  0  0  0  0  0  0  0  0  0
   -4.3118   -0.9231    0.3746 C   0  0  0  0  0  0  0  0  0  0  0  0
   -5.1769   -1.5867    0.3765 H   0  0  0  0  0  0  0  0  0  0  0  0
   -4.6091    0.0583   -0.0138 H   0  0  0  0  0  0  0  0  0  0  0  0
   -3.9361   -0.8119    1.3987 H   0  0  0  0  0  0  0  0  0  0  0  0
  1  6  1  0  0  0  0
  2  1  2  0  0  0  0
  2  3  1  0  0  0  0
  3  4  2  0  0  0  0
  4  5  1  0  0  0  0
  4  9  1  0  0  0  0
  5 10  1  0  0  0  0
  6 14  1  0  0  0  0
  6  5  2  0  0  0  0
  7  1  1  0  0  0  0
  8  2  1  0  0  0  0
 11  3  1  0  0  0  0
 11 12  2  0  0  0  0
 12 13  1  0  0  0  0
 14 15  1  0  0  0  0
 15 16  1  0  0  0  0
 15 18  1  0  0  0  0
 17 15  1  0  0  0  0
M  END
