Coordinates from ORCA-job p-CH3O-Ph-N2-X-Cl-B3LYPG-6-31G_dp-scan-d09-49-n400
 OpenBabel08281821013D

 18 18  0  0  0  0  0  0  0  0999 V2000
   -1.2299   -1.6200   -1.4600 C   0  0  0  0  0  0  0  0  0  0  0  0
    0.0150   -1.0742   -1.7186 C   0  0  0  0  0  0  0  0  0  0  0  0
    0.3729    0.1390   -1.1130 C   0  0  0  0  0  0  0  0  0  0  0  0
   -0.5340    0.8450   -0.3184 C   0  0  0  0  0  0  0  0  0  0  0  0
   -1.7959    0.3028   -0.0842 C   0  0  0  0  0  0  0  0  0  0  0  0
   -2.1455   -0.9376   -0.6386 C   0  0  0  0  0  0  0  0  0  0  0  0
   -1.5246   -2.5718   -1.8868 H   0  0  0  0  0  0  0  0  0  0  0  0
    0.7244   -1.5859   -2.3599 H   0  0  0  0  0  0  0  0  0  0  0  0
   -0.2857    1.8172    0.0897 H   0  0  0  0  0  0  0  0  0  0  0  0
   -2.4946    0.8555    0.5316 H   0  0  0  0  0  0  0  0  0  0  0  0
    1.6403    0.6777   -1.4278 N   0  0  0  0  0  0  0  0  0  0  0  0
    2.6300    1.0094   -0.8993 N   0  0  0  0  0  0  0  0  0  0  0  0
    2.7391    0.6794    1.1976 Cl  0  0  0  0  0  0  0  0  0  0  0  0
   -3.3387   -1.5522   -0.4579 O   0  0  0  0  0  0  0  0  0  0  0  0
   -4.3110   -0.9291    0.3750 C   0  0  0  0  0  0  0  0  0  0  0  0
   -5.1700   -1.6006    0.3830 H   0  0  0  0  0  0  0  0  0  0  0  0
   -4.6167    0.0450   -0.0250 H   0  0  0  0  0  0  0  0  0  0  0  0
   -3.9386   -0.8027    1.3985 H   0  0  0  0  0  0  0  0  0  0  0  0
  1  6  1  0  0  0  0
  2  1  2  0  0  0  0
  2  3  1  0  0  0  0
  3  4  2  0  0  0  0
  4  5  1  0  0  0  0
  4  9  1  0  0  0  0
  5 10  1  0  0  0  0
  6 14  1  0  0  0  0
  6  5  2  0  0  0  0
  7  1  1  0  0  0  0
  8  2  1  0  0  0  0
 11  3  1  0  0  0  0
 11 12  2  0  0  0  0
 12 13  1  0  0  0  0
 14 15  1  0  0  0  0
 15 16  1  0  0  0  0
 15 18  1  0  0  0  0
 17 15  1  0  0  0  0
M  END
