Coordinates from ORCA-job p-CH3O-Ph-N2-X-Cl-B3LYPG-6-31G_dp-scan-d09-49-n400
 OpenBabel08281821013D

 18 18  0  0  0  0  0  0  0  0999 V2000
   -1.1260   -1.5849   -1.3181 C   0  0  0  0  0  0  0  0  0  0  0  0
    0.0942   -0.9820   -1.5775 C   0  0  0  0  0  0  0  0  0  0  0  0
    0.3228    0.3111   -1.0940 C   0  0  0  0  0  0  0  0  0  0  0  0
   -0.6528    1.0103   -0.3909 C   0  0  0  0  0  0  0  0  0  0  0  0
   -1.8754    0.3955   -0.1239 C   0  0  0  0  0  0  0  0  0  0  0  0
   -2.1179   -0.9048   -0.5895 C   0  0  0  0  0  0  0  0  0  0  0  0
   -1.3358   -2.5906   -1.6640 H   0  0  0  0  0  0  0  0  0  0  0  0
    0.8674   -1.5034   -2.1304 H   0  0  0  0  0  0  0  0  0  0  0  0
   -0.4449    2.0111   -0.0311 H   0  0  0  0  0  0  0  0  0  0  0  0
   -2.6229    0.9355    0.4438 H   0  0  0  0  0  0  0  0  0  0  0  0
    1.5536    0.9602   -1.3904 N   0  0  0  0  0  0  0  0  0  0  0  0
    2.6269    0.9507   -0.9144 N   0  0  0  0  0  0  0  0  0  0  0  0
    2.8142   -0.2526    0.7683 Cl  0  0  0  0  0  0  0  0  0  0  0  0
   -3.2722   -1.5907   -0.3930 O   0  0  0  0  0  0  0  0  0  0  0  0
   -4.3126   -0.9729    0.3548 C   0  0  0  0  0  0  0  0  0  0  0  0
   -5.1250   -1.6996    0.3925 H   0  0  0  0  0  0  0  0  0  0  0  0
   -4.6687   -0.0569   -0.1324 H   0  0  0  0  0  0  0  0  0  0  0  0
   -3.9883   -0.7388    1.3760 H   0  0  0  0  0  0  0  0  0  0  0  0
  1  6  1  0  0  0  0
  2  1  2  0  0  0  0
  2  3  1  0  0  0  0
  3  4  2  0  0  0  0
  4  5  1  0  0  0  0
  4  9  1  0  0  0  0
  5 10  1  0  0  0  0
  6 14  1  0  0  0  0
  6  5  2  0  0  0  0
  7  1  1  0  0  0  0
  8  2  1  0  0  0  0
 11  3  1  0  0  0  0
 11 12  1  0  0  0  0
 12 13  1  0  0  0  0
 14 15  1  0  0  0  0
 15 16  1  0  0  0  0
 15 18  1  0  0  0  0
 17 15  1  0  0  0  0
M  RAD  2  11   2  12   2
M  END
