Coordinates from ORCA-job p-CH3O-Ph-N2-X-Cl-B3LYPG-6-31G_dp-scan-d09-49-n400
 OpenBabel08281821013D

 18 17  0  0  0  0  0  0  0  0999 V2000
   -1.3589   -1.6580   -1.6934 C   0  0  0  0  0  0  0  0  0  0  0  0
   -0.0494   -1.3183   -1.8953 C   0  0  0  0  0  0  0  0  0  0  0  0
    0.4589   -0.2608   -1.0850 C   0  0  0  0  0  0  0  0  0  0  0  0
   -0.2227    0.4849   -0.0956 C   0  0  0  0  0  0  0  0  0  0  0  0
   -1.5587    0.0751    0.0483 C   0  0  0  0  0  0  0  0  0  0  0  0
   -2.1245   -0.9580   -0.7136 C   0  0  0  0  0  0  0  0  0  0  0  0
   -1.8397   -2.4488   -2.2579 H   0  0  0  0  0  0  0  0  0  0  0  0
    0.5663   -1.8271   -2.6317 H   0  0  0  0  0  0  0  0  0  0  0  0
    0.5285    1.7992    0.8586 H   0  0  0  0  0  0  0  0  0  0  0  0
   -2.1770    0.5842    0.7836 H   0  0  0  0  0  0  0  0  0  0  0  0
    1.7674    0.0937   -1.2704 N   0  0  0  0  0  0  0  0  0  0  0  0
    2.8359    0.4146   -1.3914 N   0  0  0  0  0  0  0  0  0  0  0  0
    1.0842    2.7344    1.5156 Cl  0  0  0  0  0  0  0  0  0  0  0  0
   -3.3969   -1.3893   -0.6137 O   0  0  0  0  0  0  0  0  0  0  0  0
   -4.2675   -0.7660    0.3319 C   0  0  0  0  0  0  0  0  0  0  0  0
   -5.2235   -1.2802    0.2352 H   0  0  0  0  0  0  0  0  0  0  0  0
   -4.3971    0.2983    0.1075 H   0  0  0  0  0  0  0  0  0  0  0  0
   -3.8886   -0.8808    1.3532 H   0  0  0  0  0  0  0  0  0  0  0  0
  1  6  1  0  0  0  0
  2  1  2  0  0  0  0
  2  3  1  0  0  0  0
  3  4  2  0  0  0  0
  4  5  1  0  0  0  0
  5 10  1  0  0  0  0
  6 14  1  0  0  0  0
  6  5  2  0  0  0  0
  7  1  1  0  0  0  0
  8  2  1  0  0  0  0
  9 13  1  0  0  0  0
 11  3  1  0  0  0  0
 12 11  1  0  0  0  0
 14 15  1  0  0  0  0
 15 18  1  0  0  0  0
 16 15  1  0  0  0  0
 17 15  1  0  0  0  0
M  RAD  3   4   2  11   2  12   3
M  END
