Coordinates from ORCA-job p-CH3O-Ph-N2-X-Cl-B3LYPG-6-31G_dp-scan-d09-49-n400
 OpenBabel08281821013D

 18 18  0  0  0  0  0  0  0  0999 V2000
   -1.0475   -1.5647   -1.1342 C   0  0  0  0  0  0  0  0  0  0  0  0
    0.1683   -0.9365   -1.3394 C   0  0  0  0  0  0  0  0  0  0  0  0
    0.3076    0.4017   -0.9372 C   0  0  0  0  0  0  0  0  0  0  0  0
   -0.7486    1.0953   -0.3515 C   0  0  0  0  0  0  0  0  0  0  0  0
   -1.9582    0.4513   -0.1122 C   0  0  0  0  0  0  0  0  0  0  0  0
   -2.1138   -0.8847   -0.5145 C   0  0  0  0  0  0  0  0  0  0  0  0
   -1.2002   -2.5947   -1.4363 H   0  0  0  0  0  0  0  0  0  0  0  0
    0.9982   -1.4591   -1.7967 H   0  0  0  0  0  0  0  0  0  0  0  0
   -0.5781    2.1207   -0.0511 H   0  0  0  0  0  0  0  0  0  0  0  0
   -2.7632    0.9898    0.3717 H   0  0  0  0  0  0  0  0  0  0  0  0
    1.4937    1.1293   -1.1610 N   0  0  0  0  0  0  0  0  0  0  0  0
    2.6480    0.9530   -1.0219 N   0  0  0  0  0  0  0  0  0  0  0  0
    3.1632   -0.8531   -0.1192 Cl  0  0  0  0  0  0  0  0  0  0  0  0
   -3.2483   -1.6065   -0.3551 O   0  0  0  0  0  0  0  0  0  0  0  0
   -4.3709   -0.9906    0.2677 C   0  0  0  0  0  0  0  0  0  0  0  0
   -5.1517   -1.7516    0.2930 H   0  0  0  0  0  0  0  0  0  0  0  0
   -4.7242   -0.1267   -0.3080 H   0  0  0  0  0  0  0  0  0  0  0  0
   -4.1378   -0.6759    1.2917 H   0  0  0  0  0  0  0  0  0  0  0  0
  1  6  1  0  0  0  0
  2  1  2  0  0  0  0
  2  3  1  0  0  0  0
  3  4  2  0  0  0  0
  4  5  1  0  0  0  0
  4  9  1  0  0  0  0
  5 10  1  0  0  0  0
  6 14  1  0  0  0  0
  6  5  2  0  0  0  0
  7  1  1  0  0  0  0
  8  2  1  0  0  0  0
 11 12  2  0  0  0  0
 11  3  1  0  0  0  0
 12 13  1  0  0  0  0
 14 15  1  0  0  0  0
 15 16  1  0  0  0  0
 15 18  1  0  0  0  0
 17 15  1  0  0  0  0
M  END
