Coordinates from ORCA-job p-CH3O-Ph-N2-X-Cl-B3LYPG-6-31G_dp-scan-d09-49-n400
 OpenBabel08281821013D

 18 18  0  0  0  0  0  0  0  0999 V2000
   -1.2838   -1.6264   -1.5303 C   0  0  0  0  0  0  0  0  0  0  0  0
   -0.0178   -1.1232   -1.7614 C   0  0  0  0  0  0  0  0  0  0  0  0
    0.4056    0.0348   -1.0863 C   0  0  0  0  0  0  0  0  0  0  0  0
   -0.4654    0.7291   -0.2369 C   0  0  0  0  0  0  0  0  0  0  0  0
   -1.7501    0.2345   -0.0323 C   0  0  0  0  0  0  0  0  0  0  0  0
   -2.1618   -0.9520   -0.6607 C   0  0  0  0  0  0  0  0  0  0  0  0
   -1.6274   -2.5331   -2.0149 H   0  0  0  0  0  0  0  0  0  0  0  0
    0.6648   -1.6224   -2.4407 H   0  0  0  0  0  0  0  0  0  0  0  0
   -0.1695    1.6559    0.2347 H   0  0  0  0  0  0  0  0  0  0  0  0
   -2.4207    0.7812    0.6190 H   0  0  0  0  0  0  0  0  0  0  0  0
    1.6980    0.4937   -1.3841 N   0  0  0  0  0  0  0  0  0  0  0  0
    2.6514    0.9837   -0.9177 N   0  0  0  0  0  0  0  0  0  0  0  0
    2.6558    1.3266    1.2047 Cl  0  0  0  0  0  0  0  0  0  0  0  0
   -3.3805   -1.5167   -0.5102 O   0  0  0  0  0  0  0  0  0  0  0  0
   -4.3233   -0.8987    0.3618 C   0  0  0  0  0  0  0  0  0  0  0  0
   -5.2118   -1.5296    0.3327 H   0  0  0  0  0  0  0  0  0  0  0  0
   -4.5829    0.1099    0.0194 H   0  0  0  0  0  0  0  0  0  0  0  0
   -3.9438   -0.8501    1.3892 H   0  0  0  0  0  0  0  0  0  0  0  0
  1  6  1  0  0  0  0
  2  1  2  0  0  0  0
  2  3  1  0  0  0  0
  3  4  2  0  0  0  0
  4  5  1  0  0  0  0
  4  9  1  0  0  0  0
  5 10  1  0  0  0  0
  6 14  1  0  0  0  0
  6  5  2  0  0  0  0
  7  1  1  0  0  0  0
  8  2  1  0  0  0  0
 11  3  1  0  0  0  0
 11 12  2  0  0  0  0
 12 13  1  0  0  0  0
 14 15  1  0  0  0  0
 15 18  1  0  0  0  0
 16 15  1  0  0  0  0
 17 15  1  0  0  0  0
M  END
