Coordinates from ORCA-job p-CH3O-Ph-N2-X-Cl-B3LYPG-6-31G_dp-scan-d09-49-n400
 OpenBabel08281821013D

 18 17  0  0  0  0  0  0  0  0999 V2000
   -1.3466   -1.6120   -1.6498 C   0  0  0  0  0  0  0  0  0  0  0  0
   -0.0289   -1.2421   -1.8289 C   0  0  0  0  0  0  0  0  0  0  0  0
    0.4811   -0.1995   -1.0381 C   0  0  0  0  0  0  0  0  0  0  0  0
   -0.2863    0.4768   -0.0817 C   0  0  0  0  0  0  0  0  0  0  0  0
   -1.6114    0.0952    0.0875 C   0  0  0  0  0  0  0  0  0  0  0  0
   -2.1456   -0.9469   -0.6923 C   0  0  0  0  0  0  0  0  0  0  0  0
   -1.7962   -2.4100   -2.2298 H   0  0  0  0  0  0  0  0  0  0  0  0
    0.6036   -1.7376   -2.5580 H   0  0  0  0  0  0  0  0  0  0  0  0
    0.2607    1.2844    0.4711 H   0  0  0  0  0  0  0  0  0  0  0  0
   -2.2211    0.6076    0.8222 H   0  0  0  0  0  0  0  0  0  0  0  0
    1.8136    0.1958   -1.1995 N   0  0  0  0  0  0  0  0  0  0  0  0
    2.5845    0.9579   -0.7801 N   0  0  0  0  0  0  0  0  0  0  0  0
    1.7749    2.3026    0.8439 Cl  0  0  0  0  0  0  0  0  0  0  0  0
   -3.4171   -1.3918   -0.6043 O   0  0  0  0  0  0  0  0  0  0  0  0
   -4.3009   -0.7781    0.3317 C   0  0  0  0  0  0  0  0  0  0  0  0
   -5.2522   -1.2995    0.2258 H   0  0  0  0  0  0  0  0  0  0  0  0
   -4.4410    0.2857    0.1079 H   0  0  0  0  0  0  0  0  0  0  0  0
   -3.9347   -0.8915    1.3585 H   0  0  0  0  0  0  0  0  0  0  0  0
  1  6  1  0  0  0  0
  2  1  2  0  0  0  0
  2  3  1  0  0  0  0
  3  4  2  0  0  0  0
  4  5  1  0  0  0  0
  4  9  1  0  0  0  0
  5 10  1  0  0  0  0
  6 14  1  0  0  0  0
  6  5  2  0  0  0  0
  7  1  1  0  0  0  0
  8  2  1  0  0  0  0
 11  3  1  0  0  0  0
 11 12  2  0  0  0  0
 14 15  1  0  0  0  0
 15 18  1  0  0  0  0
 16 15  1  0  0  0  0
 17 15  1  0  0  0  0
M  RAD  2  12   2  13   2
M  END
