Coordinates from ORCA-job p-CH3O-Ph-N2-X-Cl-B3LYPG-6-31G_dp-scan-d09-49-n400
 OpenBabel08281821013D

 18 17  0  0  0  0  0  0  0  0999 V2000
   -1.3769   -1.6877   -1.7164 C   0  0  0  0  0  0  0  0  0  0  0  0
   -0.0669   -1.3583   -1.9272 C   0  0  0  0  0  0  0  0  0  0  0  0
    0.4505   -0.3021   -1.1185 C   0  0  0  0  0  0  0  0  0  0  0  0
   -0.2060    0.4597   -0.1215 C   0  0  0  0  0  0  0  0  0  0  0  0
   -1.5482    0.0506    0.0245 C   0  0  0  0  0  0  0  0  0  0  0  0
   -2.1277   -0.9780   -0.7310 C   0  0  0  0  0  0  0  0  0  0  0  0
   -1.8695   -2.4750   -2.2757 H   0  0  0  0  0  0  0  0  0  0  0  0
    0.5406   -1.8725   -2.6673 H   0  0  0  0  0  0  0  0  0  0  0  0
    0.6277    2.0678    1.0719 H   0  0  0  0  0  0  0  0  0  0  0  0
   -2.1650    0.5607    0.7613 H   0  0  0  0  0  0  0  0  0  0  0  0
    1.7609    0.0404   -1.3156 N   0  0  0  0  0  0  0  0  0  0  0  0
    2.8320    0.3524   -1.4456 N   0  0  0  0  0  0  0  0  0  0  0  0
    1.0435    2.8753    1.6569 Cl  0  0  0  0  0  0  0  0  0  0  0  0
   -3.4050   -1.4010   -0.6229 O   0  0  0  0  0  0  0  0  0  0  0  0
   -4.2632   -0.7697    0.3266 C   0  0  0  0  0  0  0  0  0  0  0  0
   -5.2247   -1.2759    0.2378 H   0  0  0  0  0  0  0  0  0  0  0  0
   -4.3863    0.2956    0.1026 H   0  0  0  0  0  0  0  0  0  0  0  0
   -3.8792   -0.8851    1.3461 H   0  0  0  0  0  0  0  0  0  0  0  0
  1  6  1  0  0  0  0
  2  1  2  0  0  0  0
  2  3  1  0  0  0  0
  3  4  2  0  0  0  0
  4  5  1  0  0  0  0
  5 10  1  0  0  0  0
  6 14  1  0  0  0  0
  6  5  2  0  0  0  0
  7  1  1  0  0  0  0
  8  2  1  0  0  0  0
  9 13  1  0  0  0  0
 11  3  1  0  0  0  0
 12 11  1  0  0  0  0
 14 15  1  0  0  0  0
 15 18  1  0  0  0  0
 16 15  1  0  0  0  0
 17 15  1  0  0  0  0
M  RAD  3   4   2  11   2  12   3
M  END
