Coordinates from ORCA-job p-CH3O-Ph-N2-X-Cl-B3LYPG-6-31G_dp-scan-d09-49-n400
 OpenBabel08281821013D

 18 18  0  0  0  0  0  0  0  0999 V2000
   -1.3465   -1.5901   -1.6284 C   0  0  0  0  0  0  0  0  0  0  0  0
   -0.0353   -1.1830   -1.7703 C   0  0  0  0  0  0  0  0  0  0  0  0
    0.4648   -0.1350   -0.9735 C   0  0  0  0  0  0  0  0  0  0  0  0
   -0.3578    0.5060   -0.0327 C   0  0  0  0  0  0  0  0  0  0  0  0
   -1.6774    0.0922    0.1050 C   0  0  0  0  0  0  0  0  0  0  0  0
   -2.1804   -0.9547   -0.6872 C   0  0  0  0  0  0  0  0  0  0  0  0
   -1.7584   -2.3948   -2.2270 H   0  0  0  0  0  0  0  0  0  0  0  0
    0.6227   -1.6593   -2.4892 H   0  0  0  0  0  0  0  0  0  0  0  0
    0.0325    1.3109    0.5750 H   0  0  0  0  0  0  0  0  0  0  0  0
   -2.3070    0.5906    0.8317 H   0  0  0  0  0  0  0  0  0  0  0  0
    1.8024    0.2031   -1.1895 N   0  0  0  0  0  0  0  0  0  0  0  0
    2.6973    0.8891   -0.8861 N   0  0  0  0  0  0  0  0  0  0  0  0
    2.3880    2.3686    0.6797 Cl  0  0  0  0  0  0  0  0  0  0  0  0
   -3.4440   -1.4230   -0.6223 O   0  0  0  0  0  0  0  0  0  0  0  0
   -4.3548   -0.8332    0.3032 C   0  0  0  0  0  0  0  0  0  0  0  0
   -5.2939   -1.3718    0.1778 H   0  0  0  0  0  0  0  0  0  0  0  0
   -4.5121    0.2293    0.0844 H   0  0  0  0  0  0  0  0  0  0  0  0
   -4.0037   -0.9478    1.3353 H   0  0  0  0  0  0  0  0  0  0  0  0
  1  6  1  0  0  0  0
  2  1  2  0  0  0  0
  2  3  1  0  0  0  0
  3  4  2  0  0  0  0
  4  5  1  0  0  0  0
  4  9  1  0  0  0  0
  5 10  1  0  0  0  0
  6 14  1  0  0  0  0
  6  5  2  0  0  0  0
  7  1  1  0  0  0  0
  8  2  1  0  0  0  0
 11  3  1  0  0  0  0
 11 12  2  0  0  0  0
 12 13  1  0  0  0  0
 14 15  1  0  0  0  0
 15 18  1  0  0  0  0
 16 15  1  0  0  0  0
 17 15  1  0  0  0  0
M  END
