Coordinates from ORCA-job p-CH3O-Ph-N2-X-Cl-B3LYPG-6-31G_dp-scan-d09-49-n400
 OpenBabel08281821013D

 18 18  0  0  0  0  0  0  0  0999 V2000
   -1.0604   -1.5648   -1.1812 C   0  0  0  0  0  0  0  0  0  0  0  0
    0.1536   -0.9380   -1.4033 C   0  0  0  0  0  0  0  0  0  0  0  0
    0.3062    0.3931   -0.9887 C   0  0  0  0  0  0  0  0  0  0  0  0
   -0.7301    1.0845   -0.3701 C   0  0  0  0  0  0  0  0  0  0  0  0
   -1.9385    0.4415   -0.1157 C   0  0  0  0  0  0  0  0  0  0  0  0
   -2.1107   -0.8871   -0.5332 C   0  0  0  0  0  0  0  0  0  0  0  0
   -1.2225   -2.5912   -1.4903 H   0  0  0  0  0  0  0  0  0  0  0  0
    0.9733   -1.4593   -1.8818 H   0  0  0  0  0  0  0  0  0  0  0  0
   -0.5473    2.1020   -0.0504 H   0  0  0  0  0  0  0  0  0  0  0  0
   -2.7292    0.9767    0.3950 H   0  0  0  0  0  0  0  0  0  0  0  0
    1.5015    1.1060   -1.2374 N   0  0  0  0  0  0  0  0  0  0  0  0
    2.6415    0.9335   -1.0020 N   0  0  0  0  0  0  0  0  0  0  0  0
    3.0422   -0.7513    0.1362 Cl  0  0  0  0  0  0  0  0  0  0  0  0
   -3.2471   -1.6051   -0.3611 O   0  0  0  0  0  0  0  0  0  0  0  0
   -4.3517   -0.9904    0.2929 C   0  0  0  0  0  0  0  0  0  0  0  0
   -5.1382   -1.7454    0.3226 H   0  0  0  0  0  0  0  0  0  0  0  0
   -4.7098   -0.1149   -0.2624 H   0  0  0  0  0  0  0  0  0  0  0  0
   -4.0962   -0.6927    1.3168 H   0  0  0  0  0  0  0  0  0  0  0  0
  1  6  1  0  0  0  0
  2  1  2  0  0  0  0
  2  3  1  0  0  0  0
  3  4  2  0  0  0  0
  4  5  1  0  0  0  0
  4  9  1  0  0  0  0
  5 10  1  0  0  0  0
  6 14  1  0  0  0  0
  6  5  2  0  0  0  0
  7  1  1  0  0  0  0
  8  2  1  0  0  0  0
 11 12  1  0  0  0  0
 11  3  1  0  0  0  0
 12 13  1  0  0  0  0
 14 15  1  0  0  0  0
 15 16  1  0  0  0  0
 15 18  1  0  0  0  0
 17 15  1  0  0  0  0
M  RAD  2  11   2  12   2
M  END
