Coordinates from ORCA-job p-CH3O-Ph-N2-X-Cl-B3LYPG-6-31G_dp-scan-d09-49-n400
 OpenBabel08281821013D

 18 18  0  0  0  0  0  0  0  0999 V2000
   -1.0494   -1.5644   -1.1421 C   0  0  0  0  0  0  0  0  0  0  0  0
    0.1660   -0.9363   -1.3500 C   0  0  0  0  0  0  0  0  0  0  0  0
    0.3072    0.4008   -0.9459 C   0  0  0  0  0  0  0  0  0  0  0  0
   -0.7459    1.0940   -0.3549 C   0  0  0  0  0  0  0  0  0  0  0  0
   -1.9552    0.4499   -0.1129 C   0  0  0  0  0  0  0  0  0  0  0  0
   -2.1132   -0.8850   -0.5176 C   0  0  0  0  0  0  0  0  0  0  0  0
   -1.2035   -2.5938   -1.4454 H   0  0  0  0  0  0  0  0  0  0  0  0
    0.9943   -1.4586   -1.8110 H   0  0  0  0  0  0  0  0  0  0  0  0
   -0.5735    2.1181   -0.0515 H   0  0  0  0  0  0  0  0  0  0  0  0
   -2.7578    0.9878    0.3756 H   0  0  0  0  0  0  0  0  0  0  0  0
    1.4947    1.1262   -1.1740 N   0  0  0  0  0  0  0  0  0  0  0  0
    2.6471    0.9492   -1.0191 N   0  0  0  0  0  0  0  0  0  0  0  0
    3.1433   -0.8388   -0.0754 Cl  0  0  0  0  0  0  0  0  0  0  0  0
   -3.2479   -1.6063   -0.3560 O   0  0  0  0  0  0  0  0  0  0  0  0
   -4.3676   -0.9908    0.2721 C   0  0  0  0  0  0  0  0  0  0  0  0
   -5.1492   -1.7509    0.2981 H   0  0  0  0  0  0  0  0  0  0  0  0
   -4.7219   -0.1250   -0.3003 H   0  0  0  0  0  0  0  0  0  0  0  0
   -4.1307   -0.6789    1.2961 H   0  0  0  0  0  0  0  0  0  0  0  0
  1  6  1  0  0  0  0
  2  1  2  0  0  0  0
  2  3  1  0  0  0  0
  3  4  2  0  0  0  0
  4  5  1  0  0  0  0
  4  9  1  0  0  0  0
  5 10  1  0  0  0  0
  6 14  1  0  0  0  0
  6  5  2  0  0  0  0
  7  1  1  0  0  0  0
  8  2  1  0  0  0  0
 11 12  1  0  0  0  0
 11  3  1  0  0  0  0
 12 13  1  0  0  0  0
 14 15  1  0  0  0  0
 15 16  1  0  0  0  0
 15 18  1  0  0  0  0
 17 15  1  0  0  0  0
M  RAD  2  11   2  12   2
M  END
