Coordinates from ORCA-job p-CH3O-Ph-N2-X-Cl-B3LYPG-6-31G_dp-scan-d09-49-n400
 OpenBabel08281821013D

 18 18  0  0  0  0  0  0  0  0999 V2000
   -1.1328   -1.5874   -1.3285 C   0  0  0  0  0  0  0  0  0  0  0  0
    0.0887   -0.9877   -1.5895 C   0  0  0  0  0  0  0  0  0  0  0  0
    0.3254    0.3010   -1.0984 C   0  0  0  0  0  0  0  0  0  0  0  0
   -0.6454    1.0013   -0.3892 C   0  0  0  0  0  0  0  0  0  0  0  0
   -1.8703    0.3905   -0.1233 C   0  0  0  0  0  0  0  0  0  0  0  0
   -2.1195   -0.9068   -0.5935 C   0  0  0  0  0  0  0  0  0  0  0  0
   -1.3477   -2.5905   -1.6788 H   0  0  0  0  0  0  0  0  0  0  0  0
    0.8574   -1.5089   -2.1487 H   0  0  0  0  0  0  0  0  0  0  0  0
   -0.4358    2.0011   -0.0272 H   0  0  0  0  0  0  0  0  0  0  0  0
   -2.6144    0.9316    0.4477 H   0  0  0  0  0  0  0  0  0  0  0  0
    1.5588    0.9443   -1.3974 N   0  0  0  0  0  0  0  0  0  0  0  0
    2.6263    0.9564   -0.9094 N   0  0  0  0  0  0  0  0  0  0  0  0
    2.8068   -0.2007    0.8094 Cl  0  0  0  0  0  0  0  0  0  0  0  0
   -3.2759   -1.5889   -0.3964 O   0  0  0  0  0  0  0  0  0  0  0  0
   -4.3112   -0.9705    0.3581 C   0  0  0  0  0  0  0  0  0  0  0  0
   -5.1263   -1.6942    0.3954 H   0  0  0  0  0  0  0  0  0  0  0  0
   -4.6655   -0.0509   -0.1235 H   0  0  0  0  0  0  0  0  0  0  0  0
   -3.9821   -0.7425    1.3792 H   0  0  0  0  0  0  0  0  0  0  0  0
  1  6  1  0  0  0  0
  2  1  2  0  0  0  0
  2  3  1  0  0  0  0
  3  4  2  0  0  0  0
  4  5  1  0  0  0  0
  4  9  1  0  0  0  0
  5 10  1  0  0  0  0
  6 14  1  0  0  0  0
  6  5  2  0  0  0  0
  7  1  1  0  0  0  0
  8  2  1  0  0  0  0
 11  3  1  0  0  0  0
 11 12  1  0  0  0  0
 12 13  1  0  0  0  0
 14 15  1  0  0  0  0
 15 16  1  0  0  0  0
 15 18  1  0  0  0  0
 17 15  1  0  0  0  0
M  RAD  2  11   2  12   2
M  END
