Coordinates from ORCA-job p-CH3O-Ph-N2-X-Cl-B3LYPG-6-31G_dp-scan-d09-49-n400
 OpenBabel08281821013D

 18 17  0  0  0  0  0  0  0  0999 V2000
   -1.3721   -1.6803   -1.7106 C   0  0  0  0  0  0  0  0  0  0  0  0
   -0.0621   -1.3486   -1.9195 C   0  0  0  0  0  0  0  0  0  0  0  0
    0.4534   -0.2920   -1.1106 C   0  0  0  0  0  0  0  0  0  0  0  0
   -0.2085    0.4665   -0.1150 C   0  0  0  0  0  0  0  0  0  0  0  0
   -1.5493    0.0569    0.0305 C   0  0  0  0  0  0  0  0  0  0  0  0
   -2.1260   -0.9726   -0.7263 C   0  0  0  0  0  0  0  0  0  0  0  0
   -1.8621   -2.4684   -2.2710 H   0  0  0  0  0  0  0  0  0  0  0  0
    0.5471   -1.8615   -2.6588 H   0  0  0  0  0  0  0  0  0  0  0  0
    0.5975    1.9924    1.0138 H   0  0  0  0  0  0  0  0  0  0  0  0
   -2.1665    0.5667    0.7670 H   0  0  0  0  0  0  0  0  0  0  0  0
    1.7632    0.0529   -1.3058 N   0  0  0  0  0  0  0  0  0  0  0  0
    2.8338    0.3662   -1.4348 N   0  0  0  0  0  0  0  0  0  0  0  0
    1.0445    2.8434    1.6277 Cl  0  0  0  0  0  0  0  0  0  0  0  0
   -3.4022   -1.3972   -0.6200 O   0  0  0  0  0  0  0  0  0  0  0  0
   -4.2631   -0.7674    0.3285 C   0  0  0  0  0  0  0  0  0  0  0  0
   -5.2235   -1.2751    0.2379 H   0  0  0  0  0  0  0  0  0  0  0  0
   -4.3873    0.2977    0.1043 H   0  0  0  0  0  0  0  0  0  0  0  0
   -3.8804   -0.8826    1.3485 H   0  0  0  0  0  0  0  0  0  0  0  0
  1  6  1  0  0  0  0
  2  1  2  0  0  0  0
  2  3  1  0  0  0  0
  3  4  2  0  0  0  0
  4  5  1  0  0  0  0
  5 10  1  0  0  0  0
  6 14  1  0  0  0  0
  6  5  2  0  0  0  0
  7  1  1  0  0  0  0
  8  2  1  0  0  0  0
  9 13  1  0  0  0  0
 11  3  1  0  0  0  0
 12 11  1  0  0  0  0
 14 15  1  0  0  0  0
 15 18  1  0  0  0  0
 16 15  1  0  0  0  0
 17 15  1  0  0  0  0
M  RAD  3   4   2  11   2  12   3
M  END
