Coordinates from ORCA-job p-CH3O-Ph-N2-X-Cl-B3LYPG-6-31G_dp-scan-d09-49-n400
 OpenBabel08281821013D

 18 18  0  0  0  0  0  0  0  0999 V2000
   -1.0611   -1.5648   -1.1837 C   0  0  0  0  0  0  0  0  0  0  0  0
    0.1528   -0.9380   -1.4066 C   0  0  0  0  0  0  0  0  0  0  0  0
    0.3062    0.3927   -0.9913 C   0  0  0  0  0  0  0  0  0  0  0  0
   -0.7291    1.0840   -0.3709 C   0  0  0  0  0  0  0  0  0  0  0  0
   -1.9374    0.4410   -0.1159 C   0  0  0  0  0  0  0  0  0  0  0  0
   -2.1105   -0.8872   -0.5342 C   0  0  0  0  0  0  0  0  0  0  0  0
   -1.2237   -2.5911   -1.4930 H   0  0  0  0  0  0  0  0  0  0  0  0
    0.9719   -1.4592   -1.8862 H   0  0  0  0  0  0  0  0  0  0  0  0
   -0.5461    2.1011   -0.0501 H   0  0  0  0  0  0  0  0  0  0  0  0
   -2.7273    0.9760    0.3960 H   0  0  0  0  0  0  0  0  0  0  0  0
    1.5024    1.1042   -1.2417 N   0  0  0  0  0  0  0  0  0  0  0  0
    2.6412    0.9322   -1.0006 N   0  0  0  0  0  0  0  0  0  0  0  0
    3.0352   -0.7454    0.1492 Cl  0  0  0  0  0  0  0  0  0  0  0  0
   -3.2470   -1.6050   -0.3615 O   0  0  0  0  0  0  0  0  0  0  0  0
   -4.3506   -0.9903    0.2942 C   0  0  0  0  0  0  0  0  0  0  0  0
   -5.1374   -1.7450    0.3241 H   0  0  0  0  0  0  0  0  0  0  0  0
   -4.7089   -0.1142   -0.2598 H   0  0  0  0  0  0  0  0  0  0  0  0
   -4.0940   -0.6937    1.3182 H   0  0  0  0  0  0  0  0  0  0  0  0
  1  6  1  0  0  0  0
  2  1  2  0  0  0  0
  2  3  1  0  0  0  0
  3  4  2  0  0  0  0
  4  5  1  0  0  0  0
  4  9  1  0  0  0  0
  5 10  1  0  0  0  0
  6 14  1  0  0  0  0
  6  5  2  0  0  0  0
  7  1  1  0  0  0  0
  8  2  1  0  0  0  0
 11 12  1  0  0  0  0
 11  3  1  0  0  0  0
 12 13  1  0  0  0  0
 14 15  1  0  0  0  0
 15 16  1  0  0  0  0
 15 18  1  0  0  0  0
 17 15  1  0  0  0  0
M  RAD  2  11   2  12   2
M  END
