Coordinates from ORCA-job p-CH3O-Ph-N2-X-Cl-B3LYPG-6-31G_dp-scan-d09-49-n400
 OpenBabel08281821013D

 18 18  0  0  0  0  0  0  0  0999 V2000
   -1.0932   -1.5739   -1.2597 C   0  0  0  0  0  0  0  0  0  0  0  0
    0.1221   -0.9570   -1.5069 C   0  0  0  0  0  0  0  0  0  0  0  0
    0.3116    0.3561   -1.0596 C   0  0  0  0  0  0  0  0  0  0  0  0
   -0.6891    1.0495   -0.3886 C   0  0  0  0  0  0  0  0  0  0  0  0
   -1.9021    0.4176   -0.1207 C   0  0  0  0  0  0  0  0  0  0  0  0
   -2.1116   -0.8960   -0.5651 C   0  0  0  0  0  0  0  0  0  0  0  0
   -1.2788   -2.5909   -1.5859 H   0  0  0  0  0  0  0  0  0  0  0  0
    0.9181   -1.4782   -2.0258 H   0  0  0  0  0  0  0  0  0  0  0  0
   -0.4900    2.0557   -0.0415 H   0  0  0  0  0  0  0  0  0  0  0  0
   -2.6674    0.9528    0.4275 H   0  0  0  0  0  0  0  0  0  0  0  0
    1.5266    1.0358   -1.3419 N   0  0  0  0  0  0  0  0  0  0  0  0
    2.6315    0.9311   -0.9531 N   0  0  0  0  0  0  0  0  0  0  0  0
    2.8843   -0.4972    0.5207 Cl  0  0  0  0  0  0  0  0  0  0  0  0
   -3.2563   -1.5992   -0.3761 O   0  0  0  0  0  0  0  0  0  0  0  0
   -4.3260   -0.9826    0.3307 C   0  0  0  0  0  0  0  0  0  0  0  0
   -5.1265   -1.7225    0.3653 H   0  0  0  0  0  0  0  0  0  0  0  0
   -4.6847   -0.0847   -0.1872 H   0  0  0  0  0  0  0  0  0  0  0  0
   -4.0319   -0.7191    1.3538 H   0  0  0  0  0  0  0  0  0  0  0  0
  1  6  1  0  0  0  0
  2  1  2  0  0  0  0
  2  3  1  0  0  0  0
  3  4  2  0  0  0  0
  4  5  1  0  0  0  0
  4  9  1  0  0  0  0
  5 10  1  0  0  0  0
  6 14  1  0  0  0  0
  6  5  2  0  0  0  0
  7  1  1  0  0  0  0
  8  2  1  0  0  0  0
 11  3  1  0  0  0  0
 11 12  1  0  0  0  0
 12 13  1  0  0  0  0
 14 15  1  0  0  0  0
 15 16  1  0  0  0  0
 15 18  1  0  0  0  0
 17 15  1  0  0  0  0
M  RAD  2  11   2  12   2
M  END
