Coordinates from ORCA-job p-CH3O-Ph-N2-X-Cl-B3LYPG-6-31G_dp-scan-d09-49-n400
 OpenBabel08281821013D

 18 18  0  0  0  0  0  0  0  0999 V2000
   -1.2062   -1.6135   -1.4293 C   0  0  0  0  0  0  0  0  0  0  0  0
    0.0318   -1.0528   -1.6928 C   0  0  0  0  0  0  0  0  0  0  0  0
    0.3599    0.1812   -1.1159 C   0  0  0  0  0  0  0  0  0  0  0  0
   -0.5627    0.8884   -0.3436 C   0  0  0  0  0  0  0  0  0  0  0  0
   -1.8150    0.3275   -0.0993 C   0  0  0  0  0  0  0  0  0  0  0  0
   -2.1390   -0.9302   -0.6289 C   0  0  0  0  0  0  0  0  0  0  0  0
   -1.4804   -2.5806   -1.8349 H   0  0  0  0  0  0  0  0  0  0  0  0
    0.7548   -1.5684   -2.3155 H   0  0  0  0  0  0  0  0  0  0  0  0
   -0.3277    1.8715    0.0474 H   0  0  0  0  0  0  0  0  0  0  0  0
   -2.5250    0.8790    0.5045 H   0  0  0  0  0  0  0  0  0  0  0  0
    1.6180    0.7504   -1.4312 N   0  0  0  0  0  0  0  0  0  0  0  0
    2.6261    1.0057   -0.8942 N   0  0  0  0  0  0  0  0  0  0  0  0
    2.7613    0.4357    1.1381 Cl  0  0  0  0  0  0  0  0  0  0  0  0
   -3.3223   -1.5634   -0.4403 O   0  0  0  0  0  0  0  0  0  0  0  0
   -4.3085   -0.9405    0.3754 C   0  0  0  0  0  0  0  0  0  0  0  0
   -5.1559   -1.6265    0.3944 H   0  0  0  0  0  0  0  0  0  0  0  0
   -4.6297    0.0198   -0.0456 H   0  0  0  0  0  0  0  0  0  0  0  0
   -3.9430   -0.7862    1.3977 H   0  0  0  0  0  0  0  0  0  0  0  0
  1  6  1  0  0  0  0
  2  1  2  0  0  0  0
  2  3  1  0  0  0  0
  3  4  2  0  0  0  0
  4  5  1  0  0  0  0
  4  9  1  0  0  0  0
  5 10  1  0  0  0  0
  6 14  1  0  0  0  0
  6  5  2  0  0  0  0
  7  1  1  0  0  0  0
  8  2  1  0  0  0  0
 11  3  1  0  0  0  0
 11 12  2  0  0  0  0
 12 13  1  0  0  0  0
 14 15  1  0  0  0  0
 15 16  1  0  0  0  0
 15 18  1  0  0  0  0
 17 15  1  0  0  0  0
M  END
