Coordinates from ORCA-job p-CH3O-Ph-N2-X-Cl-B3LYPG-6-31G_dp-scan-d09-49-n400
 OpenBabel08281821013D

 18 18  0  0  0  0  0  0  0  0999 V2000
   -1.0520   -1.5643   -1.1521 C   0  0  0  0  0  0  0  0  0  0  0  0
    0.1630   -0.9363   -1.3637 C   0  0  0  0  0  0  0  0  0  0  0  0
    0.3068    0.3993   -0.9570 C   0  0  0  0  0  0  0  0  0  0  0  0
   -0.7422    1.0919   -0.3590 C   0  0  0  0  0  0  0  0  0  0  0  0
   -1.9511    0.4479   -0.1136 C   0  0  0  0  0  0  0  0  0  0  0  0
   -2.1125   -0.8854   -0.5215 C   0  0  0  0  0  0  0  0  0  0  0  0
   -1.2080   -2.5930   -1.4569 H   0  0  0  0  0  0  0  0  0  0  0  0
    0.9891   -1.4583   -1.8292 H   0  0  0  0  0  0  0  0  0  0  0  0
   -0.5672    2.1145   -0.0515 H   0  0  0  0  0  0  0  0  0  0  0  0
   -2.7507    0.9850    0.3807 H   0  0  0  0  0  0  0  0  0  0  0  0
    1.4961    1.1218   -1.1907 N   0  0  0  0  0  0  0  0  0  0  0  0
    2.6457    0.9445   -1.0154 N   0  0  0  0  0  0  0  0  0  0  0  0
    3.1172   -0.8188   -0.0200 Cl  0  0  0  0  0  0  0  0  0  0  0  0
   -3.2474   -1.6061   -0.3572 O   0  0  0  0  0  0  0  0  0  0  0  0
   -4.3634   -0.9909    0.2775 C   0  0  0  0  0  0  0  0  0  0  0  0
   -5.1462   -1.7498    0.3044 H   0  0  0  0  0  0  0  0  0  0  0  0
   -4.7188   -0.1226   -0.2905 H   0  0  0  0  0  0  0  0  0  0  0  0
   -4.1219   -0.6825    1.3016 H   0  0  0  0  0  0  0  0  0  0  0  0
  1  6  1  0  0  0  0
  2  1  2  0  0  0  0
  2  3  1  0  0  0  0
  3  4  2  0  0  0  0
  4  5  1  0  0  0  0
  4  9  1  0  0  0  0
  5 10  1  0  0  0  0
  6 14  1  0  0  0  0
  6  5  2  0  0  0  0
  7  1  1  0  0  0  0
  8  2  1  0  0  0  0
 11 12  1  0  0  0  0
 11  3  1  0  0  0  0
 12 13  1  0  0  0  0
 14 15  1  0  0  0  0
 15 16  1  0  0  0  0
 15 18  1  0  0  0  0
 17 15  1  0  0  0  0
M  RAD  2  11   2  12   2
M  END
