Coordinates from ORCA-job p-CH3O-Ph-N2-X-Cl-B3LYPG-6-31G_dp-scan-d09-49-n400
 OpenBabel08281821013D

 18 18  0  0  0  0  0  0  0  0999 V2000
   -1.1515   -1.5948   -1.3554 C   0  0  0  0  0  0  0  0  0  0  0  0
    0.0735   -1.0042   -1.6200 C   0  0  0  0  0  0  0  0  0  0  0  0
    0.3333    0.2716   -1.1074 C   0  0  0  0  0  0  0  0  0  0  0  0
   -0.6246    0.9746   -0.3813 C   0  0  0  0  0  0  0  0  0  0  0  0
   -1.8560    0.3754   -0.1191 C   0  0  0  0  0  0  0  0  0  0  0  0
   -2.1241   -0.9130   -0.6031 C   0  0  0  0  0  0  0  0  0  0  0  0
   -1.3812   -2.5900   -1.7185 H   0  0  0  0  0  0  0  0  0  0  0  0
    0.8299   -1.5248   -2.1967 H   0  0  0  0  0  0  0  0  0  0  0  0
   -0.4086    1.9708   -0.0129 H   0  0  0  0  0  0  0  0  0  0  0  0
   -2.5910    0.9193    0.4611 H   0  0  0  0  0  0  0  0  0  0  0  0
    1.5726    0.8991   -1.4136 N   0  0  0  0  0  0  0  0  0  0  0  0
    2.6248    0.9727   -0.9007 N   0  0  0  0  0  0  0  0  0  0  0  0
    2.7937   -0.0490    0.9122 Cl  0  0  0  0  0  0  0  0  0  0  0  0
   -3.2870   -1.5837   -0.4061 O   0  0  0  0  0  0  0  0  0  0  0  0
   -4.3091   -0.9632    0.3647 C   0  0  0  0  0  0  0  0  0  0  0  0
   -5.1324   -1.6777    0.3987 H   0  0  0  0  0  0  0  0  0  0  0  0
   -4.6562   -0.0332   -0.1019 H   0  0  0  0  0  0  0  0  0  0  0  0
   -3.9694   -0.7528    1.3860 H   0  0  0  0  0  0  0  0  0  0  0  0
  1  6  1  0  0  0  0
  2  1  2  0  0  0  0
  2  3  1  0  0  0  0
  3  4  2  0  0  0  0
  4  5  1  0  0  0  0
  4  9  1  0  0  0  0
  5 10  1  0  0  0  0
  6 14  1  0  0  0  0
  6  5  2  0  0  0  0
  7  1  1  0  0  0  0
  8  2  1  0  0  0  0
 11  3  1  0  0  0  0
 11 12  1  0  0  0  0
 12 13  1  0  0  0  0
 14 15  1  0  0  0  0
 15 16  1  0  0  0  0
 15 18  1  0  0  0  0
 17 15  1  0  0  0  0
M  RAD  2  11   2  12   2
M  END
