Coordinates from ORCA-job p-CH3O-Ph-N2-X-Cl-B3LYPG-6-31G_dp-scan-d09-49-n400
 OpenBabel08281821013D

 18 18  0  0  0  0  0  0  0  0999 V2000
   -1.2314   -1.6205   -1.4626 C   0  0  0  0  0  0  0  0  0  0  0  0
    0.0140   -1.0760   -1.7211 C   0  0  0  0  0  0  0  0  0  0  0  0
    0.3741    0.1357   -1.1137 C   0  0  0  0  0  0  0  0  0  0  0  0
   -0.5312    0.8417   -0.3174 C   0  0  0  0  0  0  0  0  0  0  0  0
   -1.7938    0.3011   -0.0833 C   0  0  0  0  0  0  0  0  0  0  0  0
   -2.1456   -0.9381   -0.6394 C   0  0  0  0  0  0  0  0  0  0  0  0
   -1.5279   -2.5711   -1.8908 H   0  0  0  0  0  0  0  0  0  0  0  0
    0.7223   -1.5875   -2.3639 H   0  0  0  0  0  0  0  0  0  0  0  0
   -0.2807    1.8126    0.0924 H   0  0  0  0  0  0  0  0  0  0  0  0
   -2.4913    0.8538    0.5338 H   0  0  0  0  0  0  0  0  0  0  0  0
    1.6419    0.6729   -1.4280 N   0  0  0  0  0  0  0  0  0  0  0  0
    2.6294    1.0096   -0.8984 N   0  0  0  0  0  0  0  0  0  0  0  0
    2.7289    0.6970    1.2024 Cl  0  0  0  0  0  0  0  0  0  0  0  0
   -3.3395   -1.5512   -0.4589 O   0  0  0  0  0  0  0  0  0  0  0  0
   -4.3103   -0.9280    0.3756 C   0  0  0  0  0  0  0  0  0  0  0  0
   -5.1703   -1.5983    0.3830 H   0  0  0  0  0  0  0  0  0  0  0  0
   -4.6149    0.0472   -0.0227 H   0  0  0  0  0  0  0  0  0  0  0  0
   -3.9371   -0.8037    1.3991 H   0  0  0  0  0  0  0  0  0  0  0  0
  1  6  1  0  0  0  0
  2  1  2  0  0  0  0
  2  3  1  0  0  0  0
  3  4  2  0  0  0  0
  4  5  1  0  0  0  0
  4  9  1  0  0  0  0
  5 10  1  0  0  0  0
  6 14  1  0  0  0  0
  6  5  2  0  0  0  0
  7  1  1  0  0  0  0
  8  2  1  0  0  0  0
 11  3  1  0  0  0  0
 11 12  2  0  0  0  0
 12 13  1  0  0  0  0
 14 15  1  0  0  0  0
 15 16  1  0  0  0  0
 15 18  1  0  0  0  0
 17 15  1  0  0  0  0
M  END
