Coordinates from ORCA-job p-CH3O-Ph-N2-X-Cl-B3LYPG-6-31G_dp-scan-d09-49-n400
 OpenBabel08281821013D

 18 17  0  0  0  0  0  0  0  0999 V2000
   -1.3702   -1.6775   -1.7084 C   0  0  0  0  0  0  0  0  0  0  0  0
   -0.0604   -1.3449   -1.9166 C   0  0  0  0  0  0  0  0  0  0  0  0
    0.4545   -0.2881   -1.1077 C   0  0  0  0  0  0  0  0  0  0  0  0
   -0.2096    0.4690   -0.1127 C   0  0  0  0  0  0  0  0  0  0  0  0
   -1.5498    0.0594    0.0327 C   0  0  0  0  0  0  0  0  0  0  0  0
   -2.1254   -0.9706   -0.7246 C   0  0  0  0  0  0  0  0  0  0  0  0
   -1.8593   -2.4659   -2.2692 H   0  0  0  0  0  0  0  0  0  0  0  0
    0.5495   -1.8575   -2.6556 H   0  0  0  0  0  0  0  0  0  0  0  0
    0.5867    1.9653    0.9928 H   0  0  0  0  0  0  0  0  0  0  0  0
   -2.1671    0.5690    0.7691 H   0  0  0  0  0  0  0  0  0  0  0  0
    1.7641    0.0577   -1.3020 N   0  0  0  0  0  0  0  0  0  0  0  0
    2.8345    0.3717   -1.4305 N   0  0  0  0  0  0  0  0  0  0  0  0
    1.0454    2.8304    1.6160 Cl  0  0  0  0  0  0  0  0  0  0  0  0
   -3.4012   -1.3959   -0.6189 O   0  0  0  0  0  0  0  0  0  0  0  0
   -4.2631   -0.7666    0.3292 C   0  0  0  0  0  0  0  0  0  0  0  0
   -5.2231   -1.2750    0.2380 H   0  0  0  0  0  0  0  0  0  0  0  0
   -4.3879    0.2984    0.1049 H   0  0  0  0  0  0  0  0  0  0  0  0
   -3.8809   -0.8817    1.3493 H   0  0  0  0  0  0  0  0  0  0  0  0
  1  6  1  0  0  0  0
  2  1  2  0  0  0  0
  2  3  1  0  0  0  0
  3  4  2  0  0  0  0
  4  5  1  0  0  0  0
  5 10  1  0  0  0  0
  6 14  1  0  0  0  0
  6  5  2  0  0  0  0
  7  1  1  0  0  0  0
  8  2  1  0  0  0  0
  9 13  1  0  0  0  0
 11  3  1  0  0  0  0
 12 11  1  0  0  0  0
 14 15  1  0  0  0  0
 15 18  1  0  0  0  0
 16 15  1  0  0  0  0
 17 15  1  0  0  0  0
M  RAD  3   4   2  11   2  12   3
M  END
