Coordinates from ORCA-job p-CH3O-Ph-N2-X-Cl-B3LYPG-6-31G_dp-scan-d09-49-n400
 OpenBabel08281821013D

 18 18  0  0  0  0  0  0  0  0999 V2000
   -1.2561   -1.6250   -1.4944 C   0  0  0  0  0  0  0  0  0  0  0  0
   -0.0020   -1.0984   -1.7429 C   0  0  0  0  0  0  0  0  0  0  0  0
    0.3885    0.0896   -1.1047 C   0  0  0  0  0  0  0  0  0  0  0  0
   -0.5007    0.7920   -0.2845 C   0  0  0  0  0  0  0  0  0  0  0  0
   -1.7735    0.2723   -0.0628 C   0  0  0  0  0  0  0  0  0  0  0  0
   -2.1529   -0.9451   -0.6496 C   0  0  0  0  0  0  0  0  0  0  0  0
   -1.5746   -2.5568   -1.9474 H   0  0  0  0  0  0  0  0  0  0  0  0
    0.6934   -1.6047   -2.4038 H   0  0  0  0  0  0  0  0  0  0  0  0
   -0.2316    1.7462    0.1495 H   0  0  0  0  0  0  0  0  0  0  0  0
   -2.4587    0.8241    0.5686 H   0  0  0  0  0  0  0  0  0  0  0  0
    1.6672    0.5916   -1.4143 N   0  0  0  0  0  0  0  0  0  0  0  0
    2.6373    1.0030   -0.9068 N   0  0  0  0  0  0  0  0  0  0  0  0
    2.6982    0.9769    1.2292 Cl  0  0  0  0  0  0  0  0  0  0  0  0
   -3.3580   -1.5367   -0.4808 O   0  0  0  0  0  0  0  0  0  0  0  0
   -4.3150   -0.9151    0.3716 C   0  0  0  0  0  0  0  0  0  0  0  0
   -5.1879   -1.5682    0.3641 H   0  0  0  0  0  0  0  0  0  0  0  0
   -4.6003    0.0755   -0.0019 H   0  0  0  0  0  0  0  0  0  0  0  0
   -3.9369   -0.8241    1.3968 H   0  0  0  0  0  0  0  0  0  0  0  0
  1  6  1  0  0  0  0
  2  1  2  0  0  0  0
  2  3  1  0  0  0  0
  3  4  2  0  0  0  0
  4  5  1  0  0  0  0
  4  9  1  0  0  0  0
  5 10  1  0  0  0  0
  6 14  1  0  0  0  0
  6  5  2  0  0  0  0
  7  1  1  0  0  0  0
  8  2  1  0  0  0  0
 11  3  1  0  0  0  0
 11 12  2  0  0  0  0
 12 13  1  0  0  0  0
 14 15  1  0  0  0  0
 15 18  1  0  0  0  0
 16 15  1  0  0  0  0
 17 15  1  0  0  0  0
M  END
