Coordinates from ORCA-job p-CH3O-Ph-N2-X-Cl-B3LYPG-6-31G_dp-scan-d09-49-n400
 OpenBabel08281821013D

 18 17  0  0  0  0  0  0  0  0999 V2000
   -1.3498   -1.6235   -1.6615 C   0  0  0  0  0  0  0  0  0  0  0  0
   -0.0316   -1.2676   -1.8527 C   0  0  0  0  0  0  0  0  0  0  0  0
    0.4722   -0.2241   -1.0583 C   0  0  0  0  0  0  0  0  0  0  0  0
   -0.2613    0.4753   -0.0959 C   0  0  0  0  0  0  0  0  0  0  0  0
   -1.5897    0.0969    0.0760 C   0  0  0  0  0  0  0  0  0  0  0  0
   -2.1351   -0.9446   -0.6973 C   0  0  0  0  0  0  0  0  0  0  0  0
   -1.8133   -2.4192   -2.2335 H   0  0  0  0  0  0  0  0  0  0  0  0
    0.5938   -1.7696   -2.5838 H   0  0  0  0  0  0  0  0  0  0  0  0
    0.3806    1.3346    0.4703 H   0  0  0  0  0  0  0  0  0  0  0  0
   -2.1985    0.6119    0.8111 H   0  0  0  0  0  0  0  0  0  0  0  0
    1.8035    0.1948   -1.1920 N   0  0  0  0  0  0  0  0  0  0  0  0
    2.5723    0.9445   -0.7819 N   0  0  0  0  0  0  0  0  0  0  0  0
    1.5522    2.2949    0.9254 Cl  0  0  0  0  0  0  0  0  0  0  0  0
   -3.4083   -1.3830   -0.6014 O   0  0  0  0  0  0  0  0  0  0  0  0
   -4.2833   -0.7643    0.3400 C   0  0  0  0  0  0  0  0  0  0  0  0
   -5.2371   -1.2826    0.2420 H   0  0  0  0  0  0  0  0  0  0  0  0
   -4.4205    0.2996    0.1154 H   0  0  0  0  0  0  0  0  0  0  0  0
   -3.9093   -0.8768    1.3641 H   0  0  0  0  0  0  0  0  0  0  0  0
  1  6  1  0  0  0  0
  2  1  2  0  0  0  0
  2  3  1  0  0  0  0
  3  4  2  0  0  0  0
  4  5  1  0  0  0  0
  4  9  1  0  0  0  0
  5 10  1  0  0  0  0
  6 14  1  0  0  0  0
  6  5  2  0  0  0  0
  7  1  1  0  0  0  0
  8  2  1  0  0  0  0
 11  3  1  0  0  0  0
 11 12  2  0  0  0  0
 14 15  1  0  0  0  0
 15 18  1  0  0  0  0
 16 15  1  0  0  0  0
 17 15  1  0  0  0  0
M  RAD  2  12   2  13   2
M  END
