Coordinates from ORCA-job p-CH3O-Ph-N2-X-Cl-B3LYPG-6-31G_dp-scan-d09-49-n400
 OpenBabel08281821013D

 18 17  0  0  0  0  0  0  0  0999 V2000
   -1.3465   -1.6117   -1.6494 C   0  0  0  0  0  0  0  0  0  0  0  0
   -0.0288   -1.2413   -1.8281 C   0  0  0  0  0  0  0  0  0  0  0  0
    0.4811   -0.1986   -1.0373 C   0  0  0  0  0  0  0  0  0  0  0  0
   -0.2873    0.4770   -0.0811 C   0  0  0  0  0  0  0  0  0  0  0  0
   -1.6122    0.0951    0.0879 C   0  0  0  0  0  0  0  0  0  0  0  0
   -2.1460   -0.9471   -0.6922 C   0  0  0  0  0  0  0  0  0  0  0  0
   -1.7957   -2.4097   -2.2297 H   0  0  0  0  0  0  0  0  0  0  0  0
    0.6039   -1.7364   -2.5571 H   0  0  0  0  0  0  0  0  0  0  0  0
    0.2570    1.2838    0.4721 H   0  0  0  0  0  0  0  0  0  0  0  0
   -2.2222    0.6073    0.8225 H   0  0  0  0  0  0  0  0  0  0  0  0
    1.8135    0.1959   -1.1996 N   0  0  0  0  0  0  0  0  0  0  0  0
    2.5858    0.9575   -0.7813 N   0  0  0  0  0  0  0  0  0  0  0  0
    1.7833    2.3035    0.8416 Cl  0  0  0  0  0  0  0  0  0  0  0  0
   -3.4174   -1.3922   -0.6044 O   0  0  0  0  0  0  0  0  0  0  0  0
   -4.3017   -0.7788    0.3313 C   0  0  0  0  0  0  0  0  0  0  0  0
   -5.2528   -1.3003    0.2251 H   0  0  0  0  0  0  0  0  0  0  0  0
   -4.4418    0.2851    0.1075 H   0  0  0  0  0  0  0  0  0  0  0  0
   -3.9357   -0.8921    1.3583 H   0  0  0  0  0  0  0  0  0  0  0  0
  1  6  1  0  0  0  0
  2  1  2  0  0  0  0
  2  3  1  0  0  0  0
  3  4  2  0  0  0  0
  4  5  1  0  0  0  0
  4  9  1  0  0  0  0
  5 10  1  0  0  0  0
  6 14  1  0  0  0  0
  6  5  2  0  0  0  0
  7  1  1  0  0  0  0
  8  2  1  0  0  0  0
 11  3  1  0  0  0  0
 11 12  2  0  0  0  0
 14 15  1  0  0  0  0
 15 18  1  0  0  0  0
 16 15  1  0  0  0  0
 17 15  1  0  0  0  0
M  RAD  2  12   2  13   2
M  END
