Coordinates from ORCA-job p-CH3O-Ph-N2-X-Cl-B3LYPG-6-31G_dp-scan-d09-49-n400
 OpenBabel08281821013D

 18 17  0  0  0  0  0  0  0  0999 V2000
   -1.3462   -1.5954   -1.6337 C   0  0  0  0  0  0  0  0  0  0  0  0
   -0.0330   -1.1979   -1.7853 C   0  0  0  0  0  0  0  0  0  0  0  0
    0.4715   -0.1518   -0.9908 C   0  0  0  0  0  0  0  0  0  0  0  0
   -0.3382    0.4974   -0.0457 C   0  0  0  0  0  0  0  0  0  0  0  0
   -1.6593    0.0930    0.1009 C   0  0  0  0  0  0  0  0  0  0  0  0
   -2.1710   -0.9524   -0.6883 C   0  0  0  0  0  0  0  0  0  0  0  0
   -1.7682   -2.3983   -2.2277 H   0  0  0  0  0  0  0  0  0  0  0  0
    0.6182   -1.6792   -2.5070 H   0  0  0  0  0  0  0  0  0  0  0  0
    0.0878    1.2995    0.5475 H   0  0  0  0  0  0  0  0  0  0  0  0
   -2.2830    0.5953    0.8301 H   0  0  0  0  0  0  0  0  0  0  0  0
    1.8084    0.1975   -1.1964 N   0  0  0  0  0  0  0  0  0  0  0  0
    2.6683    0.9105   -0.8555 N   0  0  0  0  0  0  0  0  0  0  0  0
    2.2206    2.3497    0.7208 Cl  0  0  0  0  0  0  0  0  0  0  0  0
   -3.4369   -1.4142   -0.6172 O   0  0  0  0  0  0  0  0  0  0  0  0
   -4.3406   -0.8179    0.3110 C   0  0  0  0  0  0  0  0  0  0  0  0
   -5.2830   -1.3517    0.1906 H   0  0  0  0  0  0  0  0  0  0  0  0
   -4.4931    0.2451    0.0909 H   0  0  0  0  0  0  0  0  0  0  0  0
   -3.9857   -0.9322    1.3418 H   0  0  0  0  0  0  0  0  0  0  0  0
  1  6  1  0  0  0  0
  2  1  2  0  0  0  0
  2  3  1  0  0  0  0
  3  4  2  0  0  0  0
  4  5  1  0  0  0  0
  4  9  1  0  0  0  0
  5 10  1  0  0  0  0
  6 14  1  0  0  0  0
  6  5  2  0  0  0  0
  7  1  1  0  0  0  0
  8  2  1  0  0  0  0
 11  3  1  0  0  0  0
 11 12  2  0  0  0  0
 14 15  1  0  0  0  0
 15 18  1  0  0  0  0
 16 15  1  0  0  0  0
 17 15  1  0  0  0  0
M  RAD  2  12   2  13   2
M  END
