Coordinates from ORCA-job p-CH3O-Ph-N2-X-Cl-B3LYPG-6-31G_dp-scan-d09-49-n400
 OpenBabel08281821013D

 18 18  0  0  0  0  0  0  0  0999 V2000
   -1.3224   -1.6154   -1.5829 C   0  0  0  0  0  0  0  0  0  0  0  0
   -0.0344   -1.1557   -1.7713 C   0  0  0  0  0  0  0  0  0  0  0  0
    0.4326   -0.0505   -1.0344 C   0  0  0  0  0  0  0  0  0  0  0  0
   -0.4141    0.6208   -0.1387 C   0  0  0  0  0  0  0  0  0  0  0  0
   -1.7169    0.1656    0.0318 C   0  0  0  0  0  0  0  0  0  0  0  0
   -2.1766   -0.9580   -0.6763 C   0  0  0  0  0  0  0  0  0  0  0  0
   -1.7017   -2.4743   -2.1248 H   0  0  0  0  0  0  0  0  0  0  0  0
    0.6345   -1.6421   -2.4732 H   0  0  0  0  0  0  0  0  0  0  0  0
   -0.0749    1.4911    0.4045 H   0  0  0  0  0  0  0  0  0  0  0  0
   -2.3664    0.6928    0.7196 H   0  0  0  0  0  0  0  0  0  0  0  0
    1.7479    0.3404   -1.2992 N   0  0  0  0  0  0  0  0  0  0  0  0
    2.6843    0.9301   -0.9273 N   0  0  0  0  0  0  0  0  0  0  0  0
    2.5906    1.8979    1.0153 Cl  0  0  0  0  0  0  0  0  0  0  0  0
   -3.4176   -1.4768   -0.5662 O   0  0  0  0  0  0  0  0  0  0  0  0
   -4.3433   -0.8717    0.3341 C   0  0  0  0  0  0  0  0  0  0  0  0
   -5.2566   -1.4618    0.2602 H   0  0  0  0  0  0  0  0  0  0  0  0
   -4.5560    0.1652    0.0495 H   0  0  0  0  0  0  0  0  0  0  0  0
   -3.9723   -0.9005    1.3652 H   0  0  0  0  0  0  0  0  0  0  0  0
  1  6  1  0  0  0  0
  2  1  2  0  0  0  0
  2  3  1  0  0  0  0
  3  4  2  0  0  0  0
  4  5  1  0  0  0  0
  4  9  1  0  0  0  0
  5 10  1  0  0  0  0
  6 14  1  0  0  0  0
  6  5  2  0  0  0  0
  7  1  1  0  0  0  0
  8  2  1  0  0  0  0
 11  3  1  0  0  0  0
 11 12  2  0  0  0  0
 12 13  1  0  0  0  0
 14 15  1  0  0  0  0
 15 18  1  0  0  0  0
 16 15  1  0  0  0  0
 17 15  1  0  0  0  0
M  END
