Coordinates from ORCA-job p-CH3O-Ph-N2-X-Cl-B3LYPG-6-31G_dp-scan-d09-49-n400
 OpenBabel08281821013D

 18 18  0  0  0  0  0  0  0  0999 V2000
   -1.0526   -1.5643   -1.1546 C   0  0  0  0  0  0  0  0  0  0  0  0
    0.1622   -0.9363   -1.3670 C   0  0  0  0  0  0  0  0  0  0  0  0
    0.3067    0.3989   -0.9598 C   0  0  0  0  0  0  0  0  0  0  0  0
   -0.7412    1.0914   -0.3600 C   0  0  0  0  0  0  0  0  0  0  0  0
   -1.9500    0.4474   -0.1137 C   0  0  0  0  0  0  0  0  0  0  0  0
   -2.1123   -0.8855   -0.5225 C   0  0  0  0  0  0  0  0  0  0  0  0
   -1.2091   -2.5928   -1.4596 H   0  0  0  0  0  0  0  0  0  0  0  0
    0.9879   -1.4583   -1.8336 H   0  0  0  0  0  0  0  0  0  0  0  0
   -0.5656    2.1135   -0.0514 H   0  0  0  0  0  0  0  0  0  0  0  0
   -2.7489    0.9843    0.3820 H   0  0  0  0  0  0  0  0  0  0  0  0
    1.4965    1.1207   -1.1948 N   0  0  0  0  0  0  0  0  0  0  0  0
    2.6454    0.9435   -1.0145 N   0  0  0  0  0  0  0  0  0  0  0  0
    3.1108   -0.8136   -0.0065 Cl  0  0  0  0  0  0  0  0  0  0  0  0
   -3.2473   -1.6061   -0.3575 O   0  0  0  0  0  0  0  0  0  0  0  0
   -4.3624   -0.9909    0.2788 C   0  0  0  0  0  0  0  0  0  0  0  0
   -5.1455   -1.7495    0.3060 H   0  0  0  0  0  0  0  0  0  0  0  0
   -4.7181   -0.1220   -0.2882 H   0  0  0  0  0  0  0  0  0  0  0  0
   -4.1197   -0.6834    1.3029 H   0  0  0  0  0  0  0  0  0  0  0  0
  1  6  1  0  0  0  0
  2  1  2  0  0  0  0
  2  3  1  0  0  0  0
  3  4  2  0  0  0  0
  4  5  1  0  0  0  0
  4  9  1  0  0  0  0
  5 10  1  0  0  0  0
  6 14  1  0  0  0  0
  6  5  2  0  0  0  0
  7  1  1  0  0  0  0
  8  2  1  0  0  0  0
 11 12  1  0  0  0  0
 11  3  1  0  0  0  0
 12 13  1  0  0  0  0
 14 15  1  0  0  0  0
 15 16  1  0  0  0  0
 15 18  1  0  0  0  0
 17 15  1  0  0  0  0
M  RAD  2  11   2  12   2
M  END
