Coordinates from ORCA-job p-CH3O-Ph-N2-X-Cl-B3LYPG-6-31G_dp-scan-d09-49-n400
 OpenBabel08281821013D

 18 17  0  0  0  0  0  0  0  0999 V2000
   -1.3461   -1.6092   -1.6463 C   0  0  0  0  0  0  0  0  0  0  0  0
   -0.0292   -1.2338   -1.8210 C   0  0  0  0  0  0  0  0  0  0  0  0
    0.4806   -0.1903   -1.0306 C   0  0  0  0  0  0  0  0  0  0  0  0
   -0.2957    0.4804   -0.0764 C   0  0  0  0  0  0  0  0  0  0  0  0
   -1.6199    0.0951    0.0898 C   0  0  0  0  0  0  0  0  0  0  0  0
   -2.1499   -0.9482   -0.6913 C   0  0  0  0  0  0  0  0  0  0  0  0
   -1.7905   -2.4086   -2.2285 H   0  0  0  0  0  0  0  0  0  0  0  0
    0.6066   -1.7268   -2.5488 H   0  0  0  0  0  0  0  0  0  0  0  0
    0.2257    1.2842    0.4819 H   0  0  0  0  0  0  0  0  0  0  0  0
   -2.2316    0.6061    0.8235 H   0  0  0  0  0  0  0  0  0  0  0  0
    1.8137    0.1965   -1.2016 N   0  0  0  0  0  0  0  0  0  0  0  0
    2.5980    0.9530   -0.7915 N   0  0  0  0  0  0  0  0  0  0  0  0
    1.8541    2.3062    0.8237 Cl  0  0  0  0  0  0  0  0  0  0  0  0
   -3.4204   -1.3961   -0.6057 O   0  0  0  0  0  0  0  0  0  0  0  0
   -4.3078   -0.7847    0.3283 C   0  0  0  0  0  0  0  0  0  0  0  0
   -5.2575   -1.3082    0.2202 H   0  0  0  0  0  0  0  0  0  0  0  0
   -4.4499    0.2789    0.1043 H   0  0  0  0  0  0  0  0  0  0  0  0
   -3.9437   -0.8974    1.3560 H   0  0  0  0  0  0  0  0  0  0  0  0
  1  6  1  0  0  0  0
  2  1  2  0  0  0  0
  2  3  1  0  0  0  0
  3  4  2  0  0  0  0
  4  5  1  0  0  0  0
  4  9  1  0  0  0  0
  5 10  1  0  0  0  0
  6 14  1  0  0  0  0
  6  5  2  0  0  0  0
  7  1  1  0  0  0  0
  8  2  1  0  0  0  0
 11  3  1  0  0  0  0
 11 12  2  0  0  0  0
 14 15  1  0  0  0  0
 15 18  1  0  0  0  0
 16 15  1  0  0  0  0
 17 15  1  0  0  0  0
M  RAD  2  12   2  13   2
M  END
