Coordinates from ORCA-job p-CH3O-Ph-N2-X-Cl-B3LYPG-6-31G_dp-scan-d09-49-n400
 OpenBabel08281821013D

 18 17  0  0  0  0  0  0  0  0999 V2000
   -1.3813   -1.6952   -1.7214 C   0  0  0  0  0  0  0  0  0  0  0  0
   -0.0712   -1.3678   -1.9343 C   0  0  0  0  0  0  0  0  0  0  0  0
    0.4478   -0.3113   -1.1268 C   0  0  0  0  0  0  0  0  0  0  0  0
   -0.2043    0.4540   -0.1293 C   0  0  0  0  0  0  0  0  0  0  0  0
   -1.5476    0.0456    0.0178 C   0  0  0  0  0  0  0  0  0  0  0  0
   -2.1294   -0.9830   -0.7354 C   0  0  0  0  0  0  0  0  0  0  0  0
   -1.8760   -2.4824   -2.2790 H   0  0  0  0  0  0  0  0  0  0  0  0
    0.5347   -1.8835   -2.6747 H   0  0  0  0  0  0  0  0  0  0  0  0
    0.6580    2.1422    1.1311 H   0  0  0  0  0  0  0  0  0  0  0  0
   -2.1639    0.5567    0.7546 H   0  0  0  0  0  0  0  0  0  0  0  0
    1.7586    0.0296   -1.3253 N   0  0  0  0  0  0  0  0  0  0  0  0
    2.8300    0.3409   -1.4560 N   0  0  0  0  0  0  0  0  0  0  0  0
    1.0406    2.8974    1.6824 Cl  0  0  0  0  0  0  0  0  0  0  0  0
   -3.4075   -1.4048   -0.6252 O   0  0  0  0  0  0  0  0  0  0  0  0
   -4.2632   -0.7718    0.3249 C   0  0  0  0  0  0  0  0  0  0  0  0
   -5.2254   -1.2769    0.2385 H   0  0  0  0  0  0  0  0  0  0  0  0
   -4.3857    0.2935    0.1002 H   0  0  0  0  0  0  0  0  0  0  0  0
   -3.8776   -0.8862    1.3440 H   0  0  0  0  0  0  0  0  0  0  0  0
  1  6  1  0  0  0  0
  2  1  2  0  0  0  0
  2  3  1  0  0  0  0
  3  4  2  0  0  0  0
  4  5  1  0  0  0  0
  5 10  1  0  0  0  0
  6 14  1  0  0  0  0
  6  5  2  0  0  0  0
  7  1  1  0  0  0  0
  8  2  1  0  0  0  0
  9 13  1  0  0  0  0
 11  3  1  0  0  0  0
 12 11  1  0  0  0  0
 14 15  1  0  0  0  0
 15 18  1  0  0  0  0
 16 15  1  0  0  0  0
 17 15  1  0  0  0  0
M  RAD  3   4   2  11   2  12   3
M  END
