Coordinates from ORCA-job p-CH3O-Ph-N2-X-Cl-B3LYPG-6-31G_dp-scan-d09-49-n400
 OpenBabel08281821013D

 18 18  0  0  0  0  0  0  0  0999 V2000
   -1.0716   -1.5668   -1.2132 C   0  0  0  0  0  0  0  0  0  0  0  0
    0.1421   -0.9425   -1.4459 C   0  0  0  0  0  0  0  0  0  0  0  0
    0.3070    0.3826   -1.0205 C   0  0  0  0  0  0  0  0  0  0  0  0
   -0.7153    1.0740   -0.3804 C   0  0  0  0  0  0  0  0  0  0  0  0
   -1.9243    0.4335   -0.1187 C   0  0  0  0  0  0  0  0  0  0  0  0
   -2.1099   -0.8896   -0.5466 C   0  0  0  0  0  0  0  0  0  0  0  0
   -1.2416   -2.5902   -1.5279 H   0  0  0  0  0  0  0  0  0  0  0  0
    0.9537   -1.4633   -1.9394 H   0  0  0  0  0  0  0  0  0  0  0  0
   -0.5261    2.0866   -0.0484 H   0  0  0  0  0  0  0  0  0  0  0  0
   -2.7050    0.9677    0.4082 H   0  0  0  0  0  0  0  0  0  0  0  0
    1.5106    1.0821   -1.2841 N   0  0  0  0  0  0  0  0  0  0  0  0
    2.6374    0.9257   -0.9831 N   0  0  0  0  0  0  0  0  0  0  0  0
    2.9666   -0.6634    0.2988 Cl  0  0  0  0  0  0  0  0  0  0  0  0
   -3.2487   -1.6032   -0.3666 O   0  0  0  0  0  0  0  0  0  0  0  0
   -4.3396   -0.9887    0.3095 C   0  0  0  0  0  0  0  0  0  0  0  0
   -5.1309   -1.7387    0.3419 H   0  0  0  0  0  0  0  0  0  0  0  0
   -4.6997   -0.1046   -0.2306 H   0  0  0  0  0  0  0  0  0  0  0  0
   -4.0681   -0.7042    1.3331 H   0  0  0  0  0  0  0  0  0  0  0  0
  1  6  1  0  0  0  0
  2  1  2  0  0  0  0
  2  3  1  0  0  0  0
  3  4  2  0  0  0  0
  4  5  1  0  0  0  0
  4  9  1  0  0  0  0
  5 10  1  0  0  0  0
  6 14  1  0  0  0  0
  6  5  2  0  0  0  0
  7  1  1  0  0  0  0
  8  2  1  0  0  0  0
 11  3  1  0  0  0  0
 11 12  1  0  0  0  0
 12 13  1  0  0  0  0
 14 15  1  0  0  0  0
 15 16  1  0  0  0  0
 15 18  1  0  0  0  0
 17 15  1  0  0  0  0
M  RAD  2  11   2  12   2
M  END
