Coordinates from ORCA-job p-CH3O-Ph-N2-X-Cl-B3LYPG-6-31G_dp-scan-d09-49-n400
 OpenBabel08281821013D

 18 18  0  0  0  0  0  0  0  0999 V2000
   -1.2525   -1.6245   -1.4895 C   0  0  0  0  0  0  0  0  0  0  0  0
    0.0003   -1.0951   -1.7397 C   0  0  0  0  0  0  0  0  0  0  0  0
    0.3862    0.0966   -1.1061 C   0  0  0  0  0  0  0  0  0  0  0  0
   -0.5056    0.7998   -0.2898 C   0  0  0  0  0  0  0  0  0  0  0  0
   -1.7768    0.2768   -0.0663 C   0  0  0  0  0  0  0  0  0  0  0  0
   -2.1519   -0.9440   -0.6481 C   0  0  0  0  0  0  0  0  0  0  0  0
   -1.5676   -2.5593   -1.9387 H   0  0  0  0  0  0  0  0  0  0  0  0
    0.6976   -1.6022   -2.3978 H   0  0  0  0  0  0  0  0  0  0  0  0
   -0.2398    1.7570    0.1400 H   0  0  0  0  0  0  0  0  0  0  0  0
   -2.4640    0.8290    0.5628 H   0  0  0  0  0  0  0  0  0  0  0  0
    1.6633    0.6041   -1.4168 N   0  0  0  0  0  0  0  0  0  0  0  0
    2.6361    1.0046   -0.9058 N   0  0  0  0  0  0  0  0  0  0  0  0
    2.7055    0.9334    1.2275 Cl  0  0  0  0  0  0  0  0  0  0  0  0
   -3.3553   -1.5390   -0.4775 O   0  0  0  0  0  0  0  0  0  0  0  0
   -4.3143   -0.9172    0.3723 C   0  0  0  0  0  0  0  0  0  0  0  0
   -5.1853   -1.5730    0.3672 H   0  0  0  0  0  0  0  0  0  0  0  0
   -4.6026    0.0712   -0.0048 H   0  0  0  0  0  0  0  0  0  0  0  0
   -3.9368   -0.8212    1.3973 H   0  0  0  0  0  0  0  0  0  0  0  0
  1  6  1  0  0  0  0
  2  1  2  0  0  0  0
  2  3  1  0  0  0  0
  3  4  2  0  0  0  0
  4  5  1  0  0  0  0
  4  9  1  0  0  0  0
  5 10  1  0  0  0  0
  6 14  1  0  0  0  0
  6  5  2  0  0  0  0
  7  1  1  0  0  0  0
  8  2  1  0  0  0  0
 11  3  1  0  0  0  0
 11 12  2  0  0  0  0
 12 13  1  0  0  0  0
 14 15  1  0  0  0  0
 15 18  1  0  0  0  0
 16 15  1  0  0  0  0
 17 15  1  0  0  0  0
M  END
