Coordinates from ORCA-job p-CH3O-Ph-N2-X-Cl-B3LYPG-6-31G_dp-scan-d09-49-n400
 OpenBabel08281821013D

 18 18  0  0  0  0  0  0  0  0999 V2000
   -1.1162   -1.5815   -1.3020 C   0  0  0  0  0  0  0  0  0  0  0  0
    0.1023   -0.9742   -1.5587 C   0  0  0  0  0  0  0  0  0  0  0  0
    0.3190    0.3251   -1.0862 C   0  0  0  0  0  0  0  0  0  0  0  0
   -0.6634    1.0225   -0.3917 C   0  0  0  0  0  0  0  0  0  0  0  0
   -1.8829    0.4022   -0.1236 C   0  0  0  0  0  0  0  0  0  0  0  0
   -2.1157   -0.9021   -0.5829 C   0  0  0  0  0  0  0  0  0  0  0  0
   -1.3187   -2.5908   -1.6417 H   0  0  0  0  0  0  0  0  0  0  0  0
    0.8821   -1.4956   -2.1020 H   0  0  0  0  0  0  0  0  0  0  0  0
   -0.4579    2.0247   -0.0350 H   0  0  0  0  0  0  0  0  0  0  0  0
   -2.6353    0.9406    0.4391 H   0  0  0  0  0  0  0  0  0  0  0  0
    1.5457    0.9832   -1.3791 N   0  0  0  0  0  0  0  0  0  0  0  0
    2.6279    0.9437   -0.9240 N   0  0  0  0  0  0  0  0  0  0  0  0
    2.8291   -0.3262    0.7031 Cl  0  0  0  0  0  0  0  0  0  0  0  0
   -3.2670   -1.5934   -0.3878 O   0  0  0  0  0  0  0  0  0  0  0  0
   -4.3156   -0.9760    0.3488 C   0  0  0  0  0  0  0  0  0  0  0  0
   -5.1244   -1.7067    0.3863 H   0  0  0  0  0  0  0  0  0  0  0  0
   -4.6732   -0.0654   -0.1472 H   0  0  0  0  0  0  0  0  0  0  0  0
   -3.9994   -0.7331    1.3705 H   0  0  0  0  0  0  0  0  0  0  0  0
  1  6  1  0  0  0  0
  2  1  2  0  0  0  0
  2  3  1  0  0  0  0
  3  4  2  0  0  0  0
  4  5  1  0  0  0  0
  4  9  1  0  0  0  0
  5 10  1  0  0  0  0
  6 14  1  0  0  0  0
  6  5  2  0  0  0  0
  7  1  1  0  0  0  0
  8  2  1  0  0  0  0
 11  3  1  0  0  0  0
 11 12  1  0  0  0  0
 12 13  1  0  0  0  0
 14 15  1  0  0  0  0
 15 16  1  0  0  0  0
 15 18  1  0  0  0  0
 17 15  1  0  0  0  0
M  RAD  2  11   2  12   2
M  END
