Coordinates from ORCA-job p-CH3O-Ph-N2-X-Cl-B3LYPG-6-31G_dp-scan-d09-49-n400
 OpenBabel08281821013D

 18 18  0  0  0  0  0  0  0  0999 V2000
   -1.1311   -1.5868   -1.3259 C   0  0  0  0  0  0  0  0  0  0  0  0
    0.0900   -0.9862   -1.5866 C   0  0  0  0  0  0  0  0  0  0  0  0
    0.3247    0.3036   -1.0974 C   0  0  0  0  0  0  0  0  0  0  0  0
   -0.6472    1.0036   -0.3897 C   0  0  0  0  0  0  0  0  0  0  0  0
   -1.8715    0.3917   -0.1235 C   0  0  0  0  0  0  0  0  0  0  0  0
   -2.1191   -0.9063   -0.5925 C   0  0  0  0  0  0  0  0  0  0  0  0
   -1.3447   -2.5905   -1.6751 H   0  0  0  0  0  0  0  0  0  0  0  0
    0.8599   -1.5075   -2.1442 H   0  0  0  0  0  0  0  0  0  0  0  0
   -0.4381    2.0037   -0.0283 H   0  0  0  0  0  0  0  0  0  0  0  0
   -2.6166    0.9326    0.4467 H   0  0  0  0  0  0  0  0  0  0  0  0
    1.5575    0.9483   -1.3957 N   0  0  0  0  0  0  0  0  0  0  0  0
    2.6264    0.9549   -0.9106 N   0  0  0  0  0  0  0  0  0  0  0  0
    2.8086   -0.2138    0.7994 Cl  0  0  0  0  0  0  0  0  0  0  0  0
   -3.2750   -1.5894   -0.3956 O   0  0  0  0  0  0  0  0  0  0  0  0
   -4.3115   -0.9711    0.3574 C   0  0  0  0  0  0  0  0  0  0  0  0
   -5.1259   -1.6956    0.3948 H   0  0  0  0  0  0  0  0  0  0  0  0
   -4.6663   -0.0525   -0.1257 H   0  0  0  0  0  0  0  0  0  0  0  0
   -3.9836   -0.7416    1.3784 H   0  0  0  0  0  0  0  0  0  0  0  0
  1  6  1  0  0  0  0
  2  1  2  0  0  0  0
  2  3  1  0  0  0  0
  3  4  2  0  0  0  0
  4  5  1  0  0  0  0
  4  9  1  0  0  0  0
  5 10  1  0  0  0  0
  6 14  1  0  0  0  0
  6  5  2  0  0  0  0
  7  1  1  0  0  0  0
  8  2  1  0  0  0  0
 11  3  1  0  0  0  0
 11 12  1  0  0  0  0
 12 13  1  0  0  0  0
 14 15  1  0  0  0  0
 15 16  1  0  0  0  0
 15 18  1  0  0  0  0
 17 15  1  0  0  0  0
M  RAD  2  11   2  12   2
M  END
