Coordinates from ORCA-job p-CH3O-Ph-N2-X-Cl-B3LYPG-6-31G_dp-scan-d09-49-n400
 OpenBabel08281821013D

 18 18  0  0  0  0  0  0  0  0999 V2000
   -1.3464   -1.5893   -1.6271 C   0  0  0  0  0  0  0  0  0  0  0  0
   -0.0358   -1.1801   -1.7675 C   0  0  0  0  0  0  0  0  0  0  0  0
    0.4631   -0.1314   -0.9704 C   0  0  0  0  0  0  0  0  0  0  0  0
   -0.3620    0.5083   -0.0307 C   0  0  0  0  0  0  0  0  0  0  0  0
   -1.6811    0.0924    0.1054 C   0  0  0  0  0  0  0  0  0  0  0  0
   -2.1823   -0.9552   -0.6869 C   0  0  0  0  0  0  0  0  0  0  0  0
   -1.7562   -2.3946   -2.2263 H   0  0  0  0  0  0  0  0  0  0  0  0
    0.6235   -1.6554   -2.4857 H   0  0  0  0  0  0  0  0  0  0  0  0
    0.0218    1.3141    0.5791 H   0  0  0  0  0  0  0  0  0  0  0  0
   -2.3120    0.5902    0.8314 H   0  0  0  0  0  0  0  0  0  0  0  0
    1.8007    0.2052   -1.1884 N   0  0  0  0  0  0  0  0  0  0  0  0
    2.7026    0.8850   -0.8925 N   0  0  0  0  0  0  0  0  0  0  0  0
    2.4224    2.3701    0.6739 Cl  0  0  0  0  0  0  0  0  0  0  0  0
   -3.4452   -1.4251   -0.6230 O   0  0  0  0  0  0  0  0  0  0  0  0
   -4.3576   -0.8364    0.3019 C   0  0  0  0  0  0  0  0  0  0  0  0
   -5.2958   -1.3763    0.1758 H   0  0  0  0  0  0  0  0  0  0  0  0
   -4.5160    0.2259    0.0829 H   0  0  0  0  0  0  0  0  0  0  0  0
   -4.0070   -0.9505    1.3342 H   0  0  0  0  0  0  0  0  0  0  0  0
  1  6  1  0  0  0  0
  2  1  2  0  0  0  0
  2  3  1  0  0  0  0
  3  4  2  0  0  0  0
  4  5  1  0  0  0  0
  4  9  1  0  0  0  0
  5 10  1  0  0  0  0
  6 14  1  0  0  0  0
  6  5  2  0  0  0  0
  7  1  1  0  0  0  0
  8  2  1  0  0  0  0
 11  3  1  0  0  0  0
 11 12  2  0  0  0  0
 12 13  1  0  0  0  0
 14 15  1  0  0  0  0
 15 18  1  0  0  0  0
 16 15  1  0  0  0  0
 17 15  1  0  0  0  0
M  END
