Coordinates from ORCA-job p-CH3O-Ph-N2-X-Cl-B3LYPG-6-31G_dp-scan-d09-49-n400
 OpenBabel08281821013D

 18 17  0  0  0  0  0  0  0  0999 V2000
   -1.3839   -1.7004   -1.7241 C   0  0  0  0  0  0  0  0  0  0  0  0
   -0.0738   -1.3741   -1.9387 C   0  0  0  0  0  0  0  0  0  0  0  0
    0.4458   -0.3166   -1.1326 C   0  0  0  0  0  0  0  0  0  0  0  0
   -0.2036    0.4512   -0.1353 C   0  0  0  0  0  0  0  0  0  0  0  0
   -1.5475    0.0431    0.0128 C   0  0  0  0  0  0  0  0  0  0  0  0
   -2.1304   -0.9861   -0.7383 C   0  0  0  0  0  0  0  0  0  0  0  0
   -1.8798   -2.4880   -2.2800 H   0  0  0  0  0  0  0  0  0  0  0  0
    0.5312   -1.8911   -2.6789 H   0  0  0  0  0  0  0  0  0  0  0  0
    0.6801    2.1941    1.1739 H   0  0  0  0  0  0  0  0  0  0  0  0
   -2.1635    0.5552    0.7492 H   0  0  0  0  0  0  0  0  0  0  0  0
    1.7569    0.0235   -1.3322 N   0  0  0  0  0  0  0  0  0  0  0  0
    2.8283    0.3347   -1.4633 N   0  0  0  0  0  0  0  0  0  0  0  0
    1.0365    2.9036    1.6959 Cl  0  0  0  0  0  0  0  0  0  0  0  0
   -3.4089   -1.4075   -0.6263 O   0  0  0  0  0  0  0  0  0  0  0  0
   -4.2631   -0.7729    0.3238 C   0  0  0  0  0  0  0  0  0  0  0  0
   -5.2257   -1.2779    0.2395 H   0  0  0  0  0  0  0  0  0  0  0  0
   -4.3857    0.2921    0.0978 H   0  0  0  0  0  0  0  0  0  0  0  0
   -3.8764   -0.8858    1.3427 H   0  0  0  0  0  0  0  0  0  0  0  0
  1  6  1  0  0  0  0
  2  1  2  0  0  0  0
  2  3  1  0  0  0  0
  3  4  2  0  0  0  0
  4  5  1  0  0  0  0
  5 10  1  0  0  0  0
  6 14  1  0  0  0  0
  6  5  2  0  0  0  0
  7  1  1  0  0  0  0
  8  2  1  0  0  0  0
  9 13  1  0  0  0  0
 11  3  1  0  0  0  0
 12 11  1  0  0  0  0
 14 15  1  0  0  0  0
 15 18  1  0  0  0  0
 16 15  1  0  0  0  0
 17 15  1  0  0  0  0
M  RAD  3   4   2  11   2  12   3
M  END
