Coordinates from ORCA-job p-CH3O-Ph-N2-X-Cl-B3LYPG-6-31G_dp-scan-d09-49-n400
 OpenBabel08281821013D

 18 18  0  0  0  0  0  0  0  0999 V2000
   -1.3239   -1.6145   -1.5851 C   0  0  0  0  0  0  0  0  0  0  0  0
   -0.0348   -1.1571   -1.7714 C   0  0  0  0  0  0  0  0  0  0  0  0
    0.4337   -0.0546   -1.0315 C   0  0  0  0  0  0  0  0  0  0  0  0
   -0.4118    0.6153   -0.1334 C   0  0  0  0  0  0  0  0  0  0  0  0
   -1.7154    0.1621    0.0355 C   0  0  0  0  0  0  0  0  0  0  0  0
   -2.1771   -0.9580   -0.6769 C   0  0  0  0  0  0  0  0  0  0  0  0
   -1.7051   -2.4709   -2.1296 H   0  0  0  0  0  0  0  0  0  0  0  0
    0.6333   -1.6430   -2.4744 H   0  0  0  0  0  0  0  0  0  0  0  0
   -0.0685    1.4821    0.4127 H   0  0  0  0  0  0  0  0  0  0  0  0
   -2.3640    0.6879    0.7252 H   0  0  0  0  0  0  0  0  0  0  0  0
    1.7504    0.3337   -1.2949 N   0  0  0  0  0  0  0  0  0  0  0  0
    2.6852    0.9281   -0.9260 N   0  0  0  0  0  0  0  0  0  0  0  0
    2.5858    1.9242    1.0017 Cl  0  0  0  0  0  0  0  0  0  0  0  0
   -3.4193   -1.4746   -0.5691 O   0  0  0  0  0  0  0  0  0  0  0  0
   -4.3443   -0.8703    0.3324 C   0  0  0  0  0  0  0  0  0  0  0  0
   -5.2588   -1.4582    0.2562 H   0  0  0  0  0  0  0  0  0  0  0  0
   -4.5546    0.1680    0.0507 H   0  0  0  0  0  0  0  0  0  0  0  0
   -3.9741   -0.9029    1.3637 H   0  0  0  0  0  0  0  0  0  0  0  0
  1  6  1  0  0  0  0
  2  1  2  0  0  0  0
  2  3  1  0  0  0  0
  3  4  2  0  0  0  0
  4  5  1  0  0  0  0
  4  9  1  0  0  0  0
  5 10  1  0  0  0  0
  6 14  1  0  0  0  0
  6  5  2  0  0  0  0
  7  1  1  0  0  0  0
  8  2  1  0  0  0  0
 11  3  1  0  0  0  0
 11 12  2  0  0  0  0
 12 13  1  0  0  0  0
 14 15  1  0  0  0  0
 15 18  1  0  0  0  0
 16 15  1  0  0  0  0
 17 15  1  0  0  0  0
M  END
