Coordinates from ORCA-job p-CH3O-Ph-N2-X-Cl-B3LYPG-6-31G_dp-scan-d09-49-n400
 OpenBabel08281821013D

 18 17  0  0  0  0  0  0  0  0999 V2000
   -1.3654   -1.6697   -1.7024 C   0  0  0  0  0  0  0  0  0  0  0  0
   -0.0557   -1.3345   -1.9084 C   0  0  0  0  0  0  0  0  0  0  0  0
    0.4569   -0.2774   -1.0991 C   0  0  0  0  0  0  0  0  0  0  0  0
   -0.2136    0.4755   -0.1061 C   0  0  0  0  0  0  0  0  0  0  0  0
   -1.5522    0.0659    0.0389 C   0  0  0  0  0  0  0  0  0  0  0  0
   -2.1244   -0.9652   -0.7200 C   0  0  0  0  0  0  0  0  0  0  0  0
   -1.8515   -2.4590   -2.2644 H   0  0  0  0  0  0  0  0  0  0  0  0
    0.5562   -1.8458   -2.6464 H   0  0  0  0  0  0  0  0  0  0  0  0
    0.5597    1.8938    0.9364 H   0  0  0  0  0  0  0  0  0  0  0  0
   -2.1697    0.5755    0.7749 H   0  0  0  0  0  0  0  0  0  0  0  0
    1.7661    0.0715   -1.2905 N   0  0  0  0  0  0  0  0  0  0  0  0
    2.8358    0.3877   -1.4167 N   0  0  0  0  0  0  0  0  0  0  0  0
    1.0528    2.7931    1.5799 Cl  0  0  0  0  0  0  0  0  0  0  0  0
   -3.3989   -1.3925   -0.6163 O   0  0  0  0  0  0  0  0  0  0  0  0
   -4.2639   -0.7652    0.3309 C   0  0  0  0  0  0  0  0  0  0  0  0
   -5.2225   -1.2757    0.2377 H   0  0  0  0  0  0  0  0  0  0  0  0
   -4.3903    0.2995    0.1064 H   0  0  0  0  0  0  0  0  0  0  0  0
   -3.8828   -0.8802    1.3514 H   0  0  0  0  0  0  0  0  0  0  0  0
  1  6  1  0  0  0  0
  2  1  2  0  0  0  0
  2  3  1  0  0  0  0
  3  4  2  0  0  0  0
  4  5  1  0  0  0  0
  5 10  1  0  0  0  0
  6 14  1  0  0  0  0
  6  5  2  0  0  0  0
  7  1  1  0  0  0  0
  8  2  1  0  0  0  0
  9 13  1  0  0  0  0
 11  3  1  0  0  0  0
 12 11  1  0  0  0  0
 14 15  1  0  0  0  0
 15 18  1  0  0  0  0
 16 15  1  0  0  0  0
 17 15  1  0  0  0  0
M  RAD  3   4   2  11   2  12   3
M  END
