Coordinates from ORCA-job p-CH3O-Ph-N2-X-Cl-B3LYPG-6-31G_dp-scan-d09-49-n400
 OpenBabel08281821013D

 18 18  0  0  0  0  0  0  0  0999 V2000
   -1.1211   -1.5831   -1.3101 C   0  0  0  0  0  0  0  0  0  0  0  0
    0.0983   -0.9780   -1.5682 C   0  0  0  0  0  0  0  0  0  0  0  0
    0.3209    0.3182   -1.0903 C   0  0  0  0  0  0  0  0  0  0  0  0
   -0.6581    1.0166   -0.3915 C   0  0  0  0  0  0  0  0  0  0  0  0
   -1.8792    0.3989   -0.1239 C   0  0  0  0  0  0  0  0  0  0  0  0
   -2.1168   -0.9034   -0.5863 C   0  0  0  0  0  0  0  0  0  0  0  0
   -1.3272   -2.5907   -1.6529 H   0  0  0  0  0  0  0  0  0  0  0  0
    0.8747   -1.4994   -2.1163 H   0  0  0  0  0  0  0  0  0  0  0  0
   -0.4515    2.0181   -0.0333 H   0  0  0  0  0  0  0  0  0  0  0  0
   -2.6291    0.9382    0.4413 H   0  0  0  0  0  0  0  0  0  0  0  0
    1.5497    0.9718   -1.3849 N   0  0  0  0  0  0  0  0  0  0  0  0
    2.6274    0.9470   -0.9189 N   0  0  0  0  0  0  0  0  0  0  0  0
    2.8211   -0.2900    0.7363 Cl  0  0  0  0  0  0  0  0  0  0  0  0
   -3.2695   -1.5921   -0.3904 O   0  0  0  0  0  0  0  0  0  0  0  0
   -4.3140   -0.9745    0.3520 C   0  0  0  0  0  0  0  0  0  0  0  0
   -5.1245   -1.7033    0.3897 H   0  0  0  0  0  0  0  0  0  0  0  0
   -4.6710   -0.0612   -0.1396 H   0  0  0  0  0  0  0  0  0  0  0  0
   -3.9936   -0.7360    1.3734 H   0  0  0  0  0  0  0  0  0  0  0  0
  1  6  1  0  0  0  0
  2  1  2  0  0  0  0
  2  3  1  0  0  0  0
  3  4  2  0  0  0  0
  4  5  1  0  0  0  0
  4  9  1  0  0  0  0
  5 10  1  0  0  0  0
  6 14  1  0  0  0  0
  6  5  2  0  0  0  0
  7  1  1  0  0  0  0
  8  2  1  0  0  0  0
 11  3  1  0  0  0  0
 11 12  1  0  0  0  0
 12 13  1  0  0  0  0
 14 15  1  0  0  0  0
 15 16  1  0  0  0  0
 15 18  1  0  0  0  0
 17 15  1  0  0  0  0
M  RAD  2  11   2  12   2
M  END
