Coordinates from ORCA-job p-CH3O-Ph-N2-X-Cl-B3LYPG-6-31G_dp-scan-d09-49-n400
 OpenBabel08281821013D

 18 17  0  0  0  0  0  0  0  0999 V2000
   -1.3712   -1.6789   -1.7095 C   0  0  0  0  0  0  0  0  0  0  0  0
   -0.0613   -1.3468   -1.9181 C   0  0  0  0  0  0  0  0  0  0  0  0
    0.4539   -0.2901   -1.1092 C   0  0  0  0  0  0  0  0  0  0  0  0
   -0.2090    0.4677   -0.1138 C   0  0  0  0  0  0  0  0  0  0  0  0
   -1.5495    0.0581    0.0316 C   0  0  0  0  0  0  0  0  0  0  0  0
   -2.1257   -0.9716   -0.7255 C   0  0  0  0  0  0  0  0  0  0  0  0
   -1.8607   -2.4672   -2.2701 H   0  0  0  0  0  0  0  0  0  0  0  0
    0.5483   -1.8595   -2.6572 H   0  0  0  0  0  0  0  0  0  0  0  0
    0.5921    1.9789    1.0034 H   0  0  0  0  0  0  0  0  0  0  0  0
   -2.1668    0.5678    0.7680 H   0  0  0  0  0  0  0  0  0  0  0  0
    1.7636    0.0553   -1.3039 N   0  0  0  0  0  0  0  0  0  0  0  0
    2.8342    0.3689   -1.4327 N   0  0  0  0  0  0  0  0  0  0  0  0
    1.0449    2.8370    1.6220 Cl  0  0  0  0  0  0  0  0  0  0  0  0
   -3.4017   -1.3965   -0.6194 O   0  0  0  0  0  0  0  0  0  0  0  0
   -4.2631   -0.7670    0.3289 C   0  0  0  0  0  0  0  0  0  0  0  0
   -5.2233   -1.2750    0.2379 H   0  0  0  0  0  0  0  0  0  0  0  0
   -4.3876    0.2981    0.1046 H   0  0  0  0  0  0  0  0  0  0  0  0
   -3.8806   -0.8822    1.3489 H   0  0  0  0  0  0  0  0  0  0  0  0
  1  6  1  0  0  0  0
  2  1  2  0  0  0  0
  2  3  1  0  0  0  0
  3  4  2  0  0  0  0
  4  5  1  0  0  0  0
  5 10  1  0  0  0  0
  6 14  1  0  0  0  0
  6  5  2  0  0  0  0
  7  1  1  0  0  0  0
  8  2  1  0  0  0  0
  9 13  1  0  0  0  0
 11  3  1  0  0  0  0
 12 11  1  0  0  0  0
 14 15  1  0  0  0  0
 15 18  1  0  0  0  0
 16 15  1  0  0  0  0
 17 15  1  0  0  0  0
M  RAD  3   4   2  11   2  12   3
M  END
