Coordinates from ORCA-job p-CH3O-Ph-N2-X-Cl-B3LYPG-6-31G_dp-scan-d09-49-n400
 OpenBabel08281821013D

 18 17  0  0  0  0  0  0  0  0999 V2000
   -1.3466   -1.6127   -1.6506 C   0  0  0  0  0  0  0  0  0  0  0  0
   -0.0288   -1.2440   -1.8308 C   0  0  0  0  0  0  0  0  0  0  0  0
    0.4810   -0.2013   -1.0399 C   0  0  0  0  0  0  0  0  0  0  0  0
   -0.2844    0.4764   -0.0831 C   0  0  0  0  0  0  0  0  0  0  0  0
   -1.6096    0.0955    0.0868 C   0  0  0  0  0  0  0  0  0  0  0  0
   -2.1446   -0.9466   -0.6926 C   0  0  0  0  0  0  0  0  0  0  0  0
   -1.7974   -2.4105   -2.2299 H   0  0  0  0  0  0  0  0  0  0  0  0
    0.6030   -1.7400   -2.5600 H   0  0  0  0  0  0  0  0  0  0  0  0
    0.2683    1.2852    0.4686 H   0  0  0  0  0  0  0  0  0  0  0  0
   -2.2190    0.6083    0.8215 H   0  0  0  0  0  0  0  0  0  0  0  0
    1.8133    0.1959   -1.1990 N   0  0  0  0  0  0  0  0  0  0  0  0
    2.5819    0.9584   -0.7780 N   0  0  0  0  0  0  0  0  0  0  0  0
    1.7575    2.3010    0.8494 Cl  0  0  0  0  0  0  0  0  0  0  0  0
   -3.4162   -1.3909   -0.6039 O   0  0  0  0  0  0  0  0  0  0  0  0
   -4.2994   -0.7768    0.3325 C   0  0  0  0  0  0  0  0  0  0  0  0
   -5.2508   -1.2979    0.2273 H   0  0  0  0  0  0  0  0  0  0  0  0
   -4.4392    0.2871    0.1087 H   0  0  0  0  0  0  0  0  0  0  0  0
   -3.9325   -0.8901    1.3591 H   0  0  0  0  0  0  0  0  0  0  0  0
  1  6  1  0  0  0  0
  2  1  2  0  0  0  0
  2  3  1  0  0  0  0
  3  4  2  0  0  0  0
  4  5  1  0  0  0  0
  4  9  1  0  0  0  0
  5 10  1  0  0  0  0
  6 14  1  0  0  0  0
  6  5  2  0  0  0  0
  7  1  1  0  0  0  0
  8  2  1  0  0  0  0
 11  3  1  0  0  0  0
 11 12  2  0  0  0  0
 14 15  1  0  0  0  0
 15 18  1  0  0  0  0
 16 15  1  0  0  0  0
 17 15  1  0  0  0  0
M  RAD  2  12   2  13   2
M  END
