Coordinates from ORCA-job p-CH3O-Ph-N2-X-Cl-B3LYPG-6-31G_dp-scan-d09-49-n400
 OpenBabel08281821013D

 18 17  0  0  0  0  0  0  0  0999 V2000
   -1.3459   -1.6002   -1.6375 C   0  0  0  0  0  0  0  0  0  0  0  0
   -0.0315   -1.2096   -1.7972 C   0  0  0  0  0  0  0  0  0  0  0  0
    0.4757   -0.1641   -1.0051 C   0  0  0  0  0  0  0  0  0  0  0  0
   -0.3237    0.4920   -0.0572 C   0  0  0  0  0  0  0  0  0  0  0  0
   -1.6459    0.0942    0.0966 C   0  0  0  0  0  0  0  0  0  0  0  0
   -2.1637   -0.9510   -0.6892 C   0  0  0  0  0  0  0  0  0  0  0  0
   -1.7751   -2.4024   -2.2271 H   0  0  0  0  0  0  0  0  0  0  0  0
    0.6146   -1.6949   -2.5209 H   0  0  0  0  0  0  0  0  0  0  0  0
    0.1308    1.2931    0.5244 H   0  0  0  0  0  0  0  0  0  0  0  0
   -2.2651    0.5999    0.8274 H   0  0  0  0  0  0  0  0  0  0  0  0
    1.8112    0.1966   -1.2012 N   0  0  0  0  0  0  0  0  0  0  0  0
    2.6444    0.9270   -0.8328 N   0  0  0  0  0  0  0  0  0  0  0  0
    2.0948    2.3305    0.7577 Cl  0  0  0  0  0  0  0  0  0  0  0  0
   -3.4312   -1.4083   -0.6126 O   0  0  0  0  0  0  0  0  0  0  0  0
   -4.3293   -0.8063    0.3172 C   0  0  0  0  0  0  0  0  0  0  0  0
   -5.2742   -1.3370    0.2016 H   0  0  0  0  0  0  0  0  0  0  0  0
   -4.4786    0.2567    0.0950 H   0  0  0  0  0  0  0  0  0  0  0  0
   -3.9711   -0.9191    1.3470 H   0  0  0  0  0  0  0  0  0  0  0  0
  1  6  1  0  0  0  0
  2  1  2  0  0  0  0
  2  3  1  0  0  0  0
  3  4  2  0  0  0  0
  4  5  1  0  0  0  0
  4  9  1  0  0  0  0
  5 10  1  0  0  0  0
  6 14  1  0  0  0  0
  6  5  2  0  0  0  0
  7  1  1  0  0  0  0
  8  2  1  0  0  0  0
 11  3  1  0  0  0  0
 11 12  2  0  0  0  0
 14 15  1  0  0  0  0
 15 18  1  0  0  0  0
 16 15  1  0  0  0  0
 17 15  1  0  0  0  0
M  RAD  2  12   2  13   2
M  END
