Coordinates from ORCA-job p-CH3O-Ph-N2-X-Cl-B3LYPG-6-31G_dp-scan-d09-49-n400
 OpenBabel08281821013D

 18 18  0  0  0  0  0  0  0  0999 V2000
   -1.3465   -1.5913   -1.6298 C   0  0  0  0  0  0  0  0  0  0  0  0
   -0.0347   -1.1867   -1.7740 C   0  0  0  0  0  0  0  0  0  0  0  0
    0.4667   -0.1394   -0.9775 C   0  0  0  0  0  0  0  0  0  0  0  0
   -0.3527    0.5035   -0.0355 C   0  0  0  0  0  0  0  0  0  0  0  0
   -1.6727    0.0921    0.1043 C   0  0  0  0  0  0  0  0  0  0  0  0
   -2.1781   -0.9541   -0.6875 C   0  0  0  0  0  0  0  0  0  0  0  0
   -1.7609   -2.3953   -2.2275 H   0  0  0  0  0  0  0  0  0  0  0  0
    0.6216   -1.6641   -2.4936 H   0  0  0  0  0  0  0  0  0  0  0  0
    0.0461    1.3074    0.5690 H   0  0  0  0  0  0  0  0  0  0  0  0
   -2.3008    0.5914    0.8317 H   0  0  0  0  0  0  0  0  0  0  0  0
    1.8042    0.2009   -1.1911 N   0  0  0  0  0  0  0  0  0  0  0  0
    2.6904    0.8943   -0.8784 N   0  0  0  0  0  0  0  0  0  0  0  0
    2.3456    2.3654    0.6883 Cl  0  0  0  0  0  0  0  0  0  0  0  0
   -3.4423   -1.4207   -0.6212 O   0  0  0  0  0  0  0  0  0  0  0  0
   -4.3513   -0.8293    0.3051 C   0  0  0  0  0  0  0  0  0  0  0  0
   -5.2914   -1.3665    0.1807 H   0  0  0  0  0  0  0  0  0  0  0  0
   -4.5072    0.2335    0.0862 H   0  0  0  0  0  0  0  0  0  0  0  0
   -3.9994   -0.9441    1.3368 H   0  0  0  0  0  0  0  0  0  0  0  0
  1  6  1  0  0  0  0
  2  1  2  0  0  0  0
  2  3  1  0  0  0  0
  3  4  2  0  0  0  0
  4  5  1  0  0  0  0
  4  9  1  0  0  0  0
  5 10  1  0  0  0  0
  6 14  1  0  0  0  0
  6  5  2  0  0  0  0
  7  1  1  0  0  0  0
  8  2  1  0  0  0  0
 11  3  1  0  0  0  0
 11 12  2  0  0  0  0
 12 13  1  0  0  0  0
 14 15  1  0  0  0  0
 15 18  1  0  0  0  0
 16 15  1  0  0  0  0
 17 15  1  0  0  0  0
M  END
