Coordinates from ORCA-job p-CH3O-Ph-N2-X-Cl-B3LYPG-6-31G_dp-scan-d09-49-n400
 OpenBabel08281821013D

 18 17  0  0  0  0  0  0  0  0999 V2000
   -1.3684   -1.6746   -1.7061 C   0  0  0  0  0  0  0  0  0  0  0  0
   -0.0586   -1.3410   -1.9135 C   0  0  0  0  0  0  0  0  0  0  0  0
    0.4555   -0.2841   -1.1045 C   0  0  0  0  0  0  0  0  0  0  0  0
   -0.2109    0.4715   -0.1102 C   0  0  0  0  0  0  0  0  0  0  0  0
   -1.5506    0.0619    0.0350 C   0  0  0  0  0  0  0  0  0  0  0  0
   -2.1249   -0.9685   -0.7228 C   0  0  0  0  0  0  0  0  0  0  0  0
   -1.8563   -2.4633   -2.2673 H   0  0  0  0  0  0  0  0  0  0  0  0
    0.5521   -1.8531   -2.6521 H   0  0  0  0  0  0  0  0  0  0  0  0
    0.5759    1.9373    0.9710 H   0  0  0  0  0  0  0  0  0  0  0  0
   -2.1680    0.5715    0.7713 H   0  0  0  0  0  0  0  0  0  0  0  0
    1.7649    0.0629   -1.2978 N   0  0  0  0  0  0  0  0  0  0  0  0
    2.8351    0.3776   -1.4255 N   0  0  0  0  0  0  0  0  0  0  0  0
    1.0472    2.8164    1.6029 Cl  0  0  0  0  0  0  0  0  0  0  0  0
   -3.4002   -1.3945   -0.6178 O   0  0  0  0  0  0  0  0  0  0  0  0
   -4.2633   -0.7659    0.3299 C   0  0  0  0  0  0  0  0  0  0  0  0
   -5.2228   -1.2751    0.2379 H   0  0  0  0  0  0  0  0  0  0  0  0
   -4.3886    0.2990    0.1055 H   0  0  0  0  0  0  0  0  0  0  0  0
   -3.8815   -0.8809    1.3502 H   0  0  0  0  0  0  0  0  0  0  0  0
  1  6  1  0  0  0  0
  2  1  2  0  0  0  0
  2  3  1  0  0  0  0
  3  4  2  0  0  0  0
  4  5  1  0  0  0  0
  5 10  1  0  0  0  0
  6 14  1  0  0  0  0
  6  5  2  0  0  0  0
  7  1  1  0  0  0  0
  8  2  1  0  0  0  0
  9 13  1  0  0  0  0
 11  3  1  0  0  0  0
 12 11  1  0  0  0  0
 14 15  1  0  0  0  0
 15 18  1  0  0  0  0
 16 15  1  0  0  0  0
 17 15  1  0  0  0  0
M  RAD  3   4   2  11   2  12   3
M  END
