Coordinates from ORCA-job p-CH3O-Ph-N2-X-Cl-B3LYPG-6-31G_dp-scan-d09-49-n400
 OpenBabel08281821013D

 18 18  0  0  0  0  0  0  0  0999 V2000
   -1.2000   -1.6117   -1.4210 C   0  0  0  0  0  0  0  0  0  0  0  0
    0.0363   -1.0473   -1.6853 C   0  0  0  0  0  0  0  0  0  0  0  0
    0.3567    0.1918   -1.1157 C   0  0  0  0  0  0  0  0  0  0  0  0
   -0.5700    0.8989   -0.3488 C   0  0  0  0  0  0  0  0  0  0  0  0
   -1.8198    0.3333   -0.1021 C   0  0  0  0  0  0  0  0  0  0  0  0
   -2.1373   -0.9284   -0.6260 C   0  0  0  0  0  0  0  0  0  0  0  0
   -1.4690   -2.5824   -1.8215 H   0  0  0  0  0  0  0  0  0  0  0  0
    0.7629   -1.5637   -2.3031 H   0  0  0  0  0  0  0  0  0  0  0  0
   -0.3379    1.8841    0.0388 H   0  0  0  0  0  0  0  0  0  0  0  0
   -2.5327    0.8841    0.4988 H   0  0  0  0  0  0  0  0  0  0  0  0
    1.6124    0.7685   -1.4310 N   0  0  0  0  0  0  0  0  0  0  0  0
    2.6256    1.0039   -0.8942 N   0  0  0  0  0  0  0  0  0  0  0  0
    2.7677    0.3765    1.1176 Cl  0  0  0  0  0  0  0  0  0  0  0  0
   -3.3183   -1.5661   -0.4360 O   0  0  0  0  0  0  0  0  0  0  0  0
   -4.3084   -0.9432    0.3746 C   0  0  0  0  0  0  0  0  0  0  0  0
   -5.1530   -1.6326    0.3957 H   0  0  0  0  0  0  0  0  0  0  0  0
   -4.6330    0.0136   -0.0518 H   0  0  0  0  0  0  0  0  0  0  0  0
   -3.9455   -0.7820    1.3968 H   0  0  0  0  0  0  0  0  0  0  0  0
  1  6  1  0  0  0  0
  2  1  2  0  0  0  0
  2  3  1  0  0  0  0
  3  4  2  0  0  0  0
  4  5  1  0  0  0  0
  4  9  1  0  0  0  0
  5 10  1  0  0  0  0
  6 14  1  0  0  0  0
  6  5  2  0  0  0  0
  7  1  1  0  0  0  0
  8  2  1  0  0  0  0
 11  3  1  0  0  0  0
 11 12  2  0  0  0  0
 12 13  1  0  0  0  0
 14 15  1  0  0  0  0
 15 16  1  0  0  0  0
 15 18  1  0  0  0  0
 17 15  1  0  0  0  0
M  END
