Coordinates from ORCA-job p-CH3O-Ph-N2-X-Cl-B3LYPG-6-31G_dp-scan-d09-49-n400
 OpenBabel08281821013D

 18 18  0  0  0  0  0  0  0  0999 V2000
   -1.3465   -1.5910   -1.6296 C   0  0  0  0  0  0  0  0  0  0  0  0
   -0.0348   -1.1860   -1.7732 C   0  0  0  0  0  0  0  0  0  0  0  0
    0.4663   -0.1385   -0.9767 C   0  0  0  0  0  0  0  0  0  0  0  0
   -0.3537    0.5040   -0.0349 C   0  0  0  0  0  0  0  0  0  0  0  0
   -1.6737    0.0921    0.1044 C   0  0  0  0  0  0  0  0  0  0  0  0
   -2.1786   -0.9542   -0.6874 C   0  0  0  0  0  0  0  0  0  0  0  0
   -1.7604   -2.3952   -2.2274 H   0  0  0  0  0  0  0  0  0  0  0  0
    0.6218   -1.6631   -2.4927 H   0  0  0  0  0  0  0  0  0  0  0  0
    0.0433    1.3081    0.5702 H   0  0  0  0  0  0  0  0  0  0  0  0
   -2.3020    0.5912    0.8318 H   0  0  0  0  0  0  0  0  0  0  0  0
    1.8039    0.2013   -1.1908 N   0  0  0  0  0  0  0  0  0  0  0  0
    2.6918    0.8933   -0.8799 N   0  0  0  0  0  0  0  0  0  0  0  0
    2.3541    2.3661    0.6865 Cl  0  0  0  0  0  0  0  0  0  0  0  0
   -3.4427   -1.4211   -0.6215 O   0  0  0  0  0  0  0  0  0  0  0  0
   -4.3520   -0.8300    0.3047 C   0  0  0  0  0  0  0  0  0  0  0  0
   -5.2919   -1.3675    0.1801 H   0  0  0  0  0  0  0  0  0  0  0  0
   -4.5082    0.2327    0.0859 H   0  0  0  0  0  0  0  0  0  0  0  0
   -4.0002   -0.9449    1.3365 H   0  0  0  0  0  0  0  0  0  0  0  0
  1  6  1  0  0  0  0
  2  1  2  0  0  0  0
  2  3  1  0  0  0  0
  3  4  2  0  0  0  0
  4  5  1  0  0  0  0
  4  9  1  0  0  0  0
  5 10  1  0  0  0  0
  6 14  1  0  0  0  0
  6  5  2  0  0  0  0
  7  1  1  0  0  0  0
  8  2  1  0  0  0  0
 11  3  1  0  0  0  0
 11 12  2  0  0  0  0
 12 13  1  0  0  0  0
 14 15  1  0  0  0  0
 15 18  1  0  0  0  0
 16 15  1  0  0  0  0
 17 15  1  0  0  0  0
M  END
