Coordinates from ORCA-job p-CH3O-Ph-N2-X-Cl-B3LYPG-6-31G_dp-scan-d09-49-n400
 OpenBabel08281821013D

 18 18  0  0  0  0  0  0  0  0999 V2000
   -1.0456   -1.5651   -1.1260 C   0  0  0  0  0  0  0  0  0  0  0  0
    0.1706   -0.9369   -1.3283 C   0  0  0  0  0  0  0  0  0  0  0  0
    0.3080    0.4023   -0.9281 C   0  0  0  0  0  0  0  0  0  0  0  0
   -0.7512    1.0964   -0.3478 C   0  0  0  0  0  0  0  0  0  0  0  0
   -1.9613    0.4527   -0.1115 C   0  0  0  0  0  0  0  0  0  0  0  0
   -2.1145   -0.8845   -0.5112 C   0  0  0  0  0  0  0  0  0  0  0  0
   -1.1969   -2.5957   -1.4268 H   0  0  0  0  0  0  0  0  0  0  0  0
    1.0023   -1.4598   -1.7817 H   0  0  0  0  0  0  0  0  0  0  0  0
   -0.5825    2.1230   -0.0505 H   0  0  0  0  0  0  0  0  0  0  0  0
   -2.7685    0.9919    0.3679 H   0  0  0  0  0  0  0  0  0  0  0  0
    1.4927    1.1323   -1.1475 N   0  0  0  0  0  0  0  0  0  0  0  0
    2.6489    0.9572   -1.0246 N   0  0  0  0  0  0  0  0  0  0  0  0
    3.1836   -0.8666   -0.1651 Cl  0  0  0  0  0  0  0  0  0  0  0  0
   -3.2488   -1.6066   -0.3541 O   0  0  0  0  0  0  0  0  0  0  0  0
   -4.3744   -0.9903    0.2631 C   0  0  0  0  0  0  0  0  0  0  0  0
   -5.1544   -1.7520    0.2875 H   0  0  0  0  0  0  0  0  0  0  0  0
   -4.7265   -0.1282   -0.3162 H   0  0  0  0  0  0  0  0  0  0  0  0
   -4.1452   -0.6728    1.2871 H   0  0  0  0  0  0  0  0  0  0  0  0
  1  6  1  0  0  0  0
  2  1  2  0  0  0  0
  2  3  1  0  0  0  0
  3  4  2  0  0  0  0
  4  5  1  0  0  0  0
  4  9  1  0  0  0  0
  5 10  1  0  0  0  0
  6 14  1  0  0  0  0
  6  5  2  0  0  0  0
  7  1  1  0  0  0  0
  8  2  1  0  0  0  0
 11 12  2  0  0  0  0
 11  3  1  0  0  0  0
 12 13  1  0  0  0  0
 14 15  1  0  0  0  0
 15 16  1  0  0  0  0
 15 18  1  0  0  0  0
 17 15  1  0  0  0  0
M  END
