Coordinates from ORCA-job p-CH3O-Ph-N2-X-Cl-B3LYPG-6-31G_dp-scan-d09-49-n400
 OpenBabel08281821013D

 18 17  0  0  0  0  0  0  0  0999 V2000
   -1.3664   -1.6714   -1.7036 C   0  0  0  0  0  0  0  0  0  0  0  0
   -0.0567   -1.3368   -1.9102 C   0  0  0  0  0  0  0  0  0  0  0  0
    0.4565   -0.2797   -1.1010 C   0  0  0  0  0  0  0  0  0  0  0  0
   -0.2126    0.4741   -0.1076 C   0  0  0  0  0  0  0  0  0  0  0  0
   -1.5516    0.0645    0.0375 C   0  0  0  0  0  0  0  0  0  0  0  0
   -2.1245   -0.9664   -0.7210 C   0  0  0  0  0  0  0  0  0  0  0  0
   -1.8531   -2.4605   -2.2654 H   0  0  0  0  0  0  0  0  0  0  0  0
    0.5548   -1.8483   -2.6484 H   0  0  0  0  0  0  0  0  0  0  0  0
    0.5650    1.9085    0.9482 H   0  0  0  0  0  0  0  0  0  0  0  0
   -2.1690    0.5741    0.7736 H   0  0  0  0  0  0  0  0  0  0  0  0
    1.7657    0.0685   -1.2931 N   0  0  0  0  0  0  0  0  0  0  0  0
    2.8356    0.3841   -1.4198 N   0  0  0  0  0  0  0  0  0  0  0  0
    1.0504    2.8012    1.5881 Cl  0  0  0  0  0  0  0  0  0  0  0  0
   -3.3993   -1.3932   -0.6168 O   0  0  0  0  0  0  0  0  0  0  0  0
   -4.2636   -0.7654    0.3306 C   0  0  0  0  0  0  0  0  0  0  0  0
   -5.2225   -1.2754    0.2378 H   0  0  0  0  0  0  0  0  0  0  0  0
   -4.3897    0.2994    0.1061 H   0  0  0  0  0  0  0  0  0  0  0  0
   -3.8823   -0.8804    1.3510 H   0  0  0  0  0  0  0  0  0  0  0  0
  1  6  1  0  0  0  0
  2  1  2  0  0  0  0
  2  3  1  0  0  0  0
  3  4  2  0  0  0  0
  4  5  1  0  0  0  0
  5 10  1  0  0  0  0
  6 14  1  0  0  0  0
  6  5  2  0  0  0  0
  7  1  1  0  0  0  0
  8  2  1  0  0  0  0
  9 13  1  0  0  0  0
 11  3  1  0  0  0  0
 12 11  1  0  0  0  0
 14 15  1  0  0  0  0
 15 18  1  0  0  0  0
 16 15  1  0  0  0  0
 17 15  1  0  0  0  0
M  RAD  3   4   2  11   2  12   3
M  END
