Coordinates from ORCA-job p-CH3O-Ph-N2-X-Cl-B3LYPG-6-31G_dp-scan-d09-49-n400
 OpenBabel08281821013D

 18 17  0  0  0  0  0  0  0  0999 V2000
   -1.3460   -1.6080   -1.6449 C   0  0  0  0  0  0  0  0  0  0  0  0
   -0.0294   -1.2303   -1.8176 C   0  0  0  0  0  0  0  0  0  0  0  0
    0.4801   -0.1864   -1.0272 C   0  0  0  0  0  0  0  0  0  0  0  0
   -0.2998    0.4821   -0.0741 C   0  0  0  0  0  0  0  0  0  0  0  0
   -1.6237    0.0951    0.0906 C   0  0  0  0  0  0  0  0  0  0  0  0
   -2.1519   -0.9486   -0.6909 C   0  0  0  0  0  0  0  0  0  0  0  0
   -1.7882   -2.4079   -2.2280 H   0  0  0  0  0  0  0  0  0  0  0  0
    0.6078   -1.7223   -2.5448 H   0  0  0  0  0  0  0  0  0  0  0  0
    0.2113    1.2847    0.4872 H   0  0  0  0  0  0  0  0  0  0  0  0
   -2.2364    0.6055    0.8239 H   0  0  0  0  0  0  0  0  0  0  0  0
    1.8135    0.1966   -1.2022 N   0  0  0  0  0  0  0  0  0  0  0  0
    2.6043    0.9501   -0.7969 N   0  0  0  0  0  0  0  0  0  0  0  0
    1.8890    2.3088    0.8151 Cl  0  0  0  0  0  0  0  0  0  0  0  0
   -3.4219   -1.3980   -0.6065 O   0  0  0  0  0  0  0  0  0  0  0  0
   -4.3108   -0.7877    0.3268 C   0  0  0  0  0  0  0  0  0  0  0  0
   -5.2599   -1.3123    0.2179 H   0  0  0  0  0  0  0  0  0  0  0  0
   -4.4540    0.2758    0.1028 H   0  0  0  0  0  0  0  0  0  0  0  0
   -3.9475   -0.9001    1.3549 H   0  0  0  0  0  0  0  0  0  0  0  0
  1  6  1  0  0  0  0
  2  1  2  0  0  0  0
  2  3  1  0  0  0  0
  3  4  2  0  0  0  0
  4  5  1  0  0  0  0
  4  9  1  0  0  0  0
  5 10  1  0  0  0  0
  6 14  1  0  0  0  0
  6  5  2  0  0  0  0
  7  1  1  0  0  0  0
  8  2  1  0  0  0  0
 11  3  1  0  0  0  0
 11 12  2  0  0  0  0
 14 15  1  0  0  0  0
 15 18  1  0  0  0  0
 16 15  1  0  0  0  0
 17 15  1  0  0  0  0
M  RAD  2  12   2  13   2
M  END
