Coordinates from ORCA-job p-CH3O-Ph-N2-X-Cl-B3LYPG-6-31G_dp-scan-d09-49-n400
 OpenBabel08281821013D

 18 18  0  0  0  0  0  0  0  0999 V2000
   -1.1130   -1.5804   -1.2965 C   0  0  0  0  0  0  0  0  0  0  0  0
    0.1049   -0.9717   -1.5522 C   0  0  0  0  0  0  0  0  0  0  0  0
    0.3179    0.3295   -1.0833 C   0  0  0  0  0  0  0  0  0  0  0  0
   -0.6668    1.0263   -0.3916 C   0  0  0  0  0  0  0  0  0  0  0  0
   -1.8853    0.4043   -0.1233 C   0  0  0  0  0  0  0  0  0  0  0  0
   -2.1150   -0.9013   -0.5805 C   0  0  0  0  0  0  0  0  0  0  0  0
   -1.3132   -2.5909   -1.6343 H   0  0  0  0  0  0  0  0  0  0  0  0
    0.8869   -1.4931   -2.0923 H   0  0  0  0  0  0  0  0  0  0  0  0
   -0.4620    2.0289   -0.0359 H   0  0  0  0  0  0  0  0  0  0  0  0
   -2.6393    0.9422    0.4378 H   0  0  0  0  0  0  0  0  0  0  0  0
    1.5430    0.9906   -1.3751 N   0  0  0  0  0  0  0  0  0  0  0  0
    2.6283    0.9417   -0.9276 N   0  0  0  0  0  0  0  0  0  0  0  0
    2.8350   -0.3497    0.6804 Cl  0  0  0  0  0  0  0  0  0  0  0  0
   -3.2654   -1.5943   -0.3861 O   0  0  0  0  0  0  0  0  0  0  0  0
   -4.3168   -0.9769    0.3466 C   0  0  0  0  0  0  0  0  0  0  0  0
   -5.1245   -1.7089    0.3838 H   0  0  0  0  0  0  0  0  0  0  0  0
   -4.6747   -0.0680   -0.1525 H   0  0  0  0  0  0  0  0  0  0  0  0
   -4.0035   -0.7311    1.3684 H   0  0  0  0  0  0  0  0  0  0  0  0
  1  6  1  0  0  0  0
  2  1  2  0  0  0  0
  2  3  1  0  0  0  0
  3  4  2  0  0  0  0
  4  5  1  0  0  0  0
  4  9  1  0  0  0  0
  5 10  1  0  0  0  0
  6 14  1  0  0  0  0
  6  5  2  0  0  0  0
  7  1  1  0  0  0  0
  8  2  1  0  0  0  0
 11  3  1  0  0  0  0
 11 12  1  0  0  0  0
 12 13  1  0  0  0  0
 14 15  1  0  0  0  0
 15 16  1  0  0  0  0
 15 18  1  0  0  0  0
 17 15  1  0  0  0  0
M  RAD  2  11   2  12   2
M  END
