Coordinates from ORCA-job p-CH3O-Ph-N2-X-Cl-B3LYPG-6-31G_dp-scan-d09-49-n400
 OpenBabel08281821013D

 18 17  0  0  0  0  0  0  0  0999 V2000
   -1.3459   -1.6036   -1.6403 C   0  0  0  0  0  0  0  0  0  0  0  0
   -0.0306   -1.2182   -1.8057 C   0  0  0  0  0  0  0  0  0  0  0  0
    0.4777   -0.1732   -1.0146 C   0  0  0  0  0  0  0  0  0  0  0  0
   -0.3140    0.4879   -0.0645 C   0  0  0  0  0  0  0  0  0  0  0  0
   -1.6368    0.0947    0.0941 C   0  0  0  0  0  0  0  0  0  0  0  0
   -2.1588   -0.9501   -0.6898 C   0  0  0  0  0  0  0  0  0  0  0  0
   -1.7804   -2.4050   -2.2271 H   0  0  0  0  0  0  0  0  0  0  0  0
    0.6118   -1.7063   -2.5309 H   0  0  0  0  0  0  0  0  0  0  0  0
    0.1638    1.2888    0.5082 H   0  0  0  0  0  0  0  0  0  0  0  0
   -2.2532    0.6024    0.8258 H   0  0  0  0  0  0  0  0  0  0  0  0
    1.8123    0.1969   -1.2025 N   0  0  0  0  0  0  0  0  0  0  0  0
    2.6275    0.9377   -0.8177 N   0  0  0  0  0  0  0  0  0  0  0  0
    2.0103    2.3207    0.7828 Cl  0  0  0  0  0  0  0  0  0  0  0  0
   -3.4273   -1.4042   -0.6099 O   0  0  0  0  0  0  0  0  0  0  0  0
   -4.3217   -0.7985    0.3212 C   0  0  0  0  0  0  0  0  0  0  0  0
   -5.2682   -1.3268    0.2086 H   0  0  0  0  0  0  0  0  0  0  0  0
   -4.4685    0.2646    0.0978 H   0  0  0  0  0  0  0  0  0  0  0  0
   -3.9614   -0.9107    1.3504 H   0  0  0  0  0  0  0  0  0  0  0  0
  1  6  1  0  0  0  0
  2  1  2  0  0  0  0
  2  3  1  0  0  0  0
  3  4  2  0  0  0  0
  4  5  1  0  0  0  0
  4  9  1  0  0  0  0
  5 10  1  0  0  0  0
  6 14  1  0  0  0  0
  6  5  2  0  0  0  0
  7  1  1  0  0  0  0
  8  2  1  0  0  0  0
 11  3  1  0  0  0  0
 11 12  2  0  0  0  0
 14 15  1  0  0  0  0
 15 18  1  0  0  0  0
 16 15  1  0  0  0  0
 17 15  1  0  0  0  0
M  RAD  2  12   2  13   2
M  END
