Coordinates from ORCA-job p-CH3O-Ph-N2-X-Cl-B3LYPG-6-31G_dp-scan-d09-49-n400
 OpenBabel08281821013D

 18 18  0  0  0  0  0  0  0  0999 V2000
   -1.1851   -1.6073   -1.4007 C   0  0  0  0  0  0  0  0  0  0  0  0
    0.0473   -1.0342   -1.6666 C   0  0  0  0  0  0  0  0  0  0  0  0
    0.3491    0.2168   -1.1144 C   0  0  0  0  0  0  0  0  0  0  0  0
   -0.5868    0.9228   -0.3596 C   0  0  0  0  0  0  0  0  0  0  0  0
   -1.8308    0.3463   -0.1076 C   0  0  0  0  0  0  0  0  0  0  0  0
   -2.1331   -0.9242   -0.6185 C   0  0  0  0  0  0  0  0  0  0  0  0
   -1.4418   -2.5861   -1.7893 H   0  0  0  0  0  0  0  0  0  0  0  0
    0.7826   -1.5521   -2.2726 H   0  0  0  0  0  0  0  0  0  0  0  0
   -0.3608    1.9122    0.0212 H   0  0  0  0  0  0  0  0  0  0  0  0
   -2.5504    0.8952    0.4872 H   0  0  0  0  0  0  0  0  0  0  0  0
    1.5991    0.8106   -1.4291 N   0  0  0  0  0  0  0  0  0  0  0  0
    2.6243    0.9984   -0.8954 N   0  0  0  0  0  0  0  0  0  0  0  0
    2.7795    0.2396    1.0619 Cl  0  0  0  0  0  0  0  0  0  0  0  0
   -3.3084   -1.5725   -0.4256 O   0  0  0  0  0  0  0  0  0  0  0  0
   -4.3086   -0.9492    0.3719 C   0  0  0  0  0  0  0  0  0  0  0  0
   -5.1467   -1.6465    0.3973 H   0  0  0  0  0  0  0  0  0  0  0  0
   -4.6401   -0.0009   -0.0681 H   0  0  0  0  0  0  0  0  0  0  0  0
   -3.9530   -0.7717    1.3940 H   0  0  0  0  0  0  0  0  0  0  0  0
  1  6  1  0  0  0  0
  2  1  2  0  0  0  0
  2  3  1  0  0  0  0
  3  4  2  0  0  0  0
  4  5  1  0  0  0  0
  4  9  1  0  0  0  0
  5 10  1  0  0  0  0
  6 14  1  0  0  0  0
  6  5  2  0  0  0  0
  7  1  1  0  0  0  0
  8  2  1  0  0  0  0
 11  3  1  0  0  0  0
 11 12  2  0  0  0  0
 12 13  1  0  0  0  0
 14 15  1  0  0  0  0
 15 16  1  0  0  0  0
 15 18  1  0  0  0  0
 17 15  1  0  0  0  0
M  END
