Coordinates from ORCA-job p-CH3O-Ph-N2-X-Cl-B3LYPG-6-31G_dp-scan-d09-49-n400
 OpenBabel08281821013D

 18 17  0  0  0  0  0  0  0  0999 V2000
   -1.3634   -1.6661   -1.6996 C   0  0  0  0  0  0  0  0  0  0  0  0
   -0.0537   -1.3296   -1.9044 C   0  0  0  0  0  0  0  0  0  0  0  0
    0.4577   -0.2724   -1.0949 C   0  0  0  0  0  0  0  0  0  0  0  0
   -0.2163    0.4783   -0.1029 C   0  0  0  0  0  0  0  0  0  0  0  0
   -1.5541    0.0687    0.0418 C   0  0  0  0  0  0  0  0  0  0  0  0
   -2.1244   -0.9630   -0.7180 C   0  0  0  0  0  0  0  0  0  0  0  0
   -1.8479   -2.4559   -2.2624 H   0  0  0  0  0  0  0  0  0  0  0  0
    0.5593   -1.8401   -2.6420 H   0  0  0  0  0  0  0  0  0  0  0  0
    0.5497    1.8638    0.9118 H   0  0  0  0  0  0  0  0  0  0  0  0
   -2.1717    0.5782    0.7776 H   0  0  0  0  0  0  0  0  0  0  0  0
    1.7666    0.0782   -1.2845 N   0  0  0  0  0  0  0  0  0  0  0  0
    2.8360    0.3957   -1.4092 N   0  0  0  0  0  0  0  0  0  0  0  0
    1.0611    2.7757    1.5612 Cl  0  0  0  0  0  0  0  0  0  0  0  0
   -3.3982   -1.3915   -0.6154 O   0  0  0  0  0  0  0  0  0  0  0  0
   -4.2649   -0.7653    0.3313 C   0  0  0  0  0  0  0  0  0  0  0  0
   -5.2227   -1.2768    0.2370 H   0  0  0  0  0  0  0  0  0  0  0  0
   -4.3922    0.2993    0.1068 H   0  0  0  0  0  0  0  0  0  0  0  0
   -3.8845   -0.8802    1.3520 H   0  0  0  0  0  0  0  0  0  0  0  0
  1  6  1  0  0  0  0
  2  1  2  0  0  0  0
  2  3  1  0  0  0  0
  3  4  2  0  0  0  0
  4  5  1  0  0  0  0
  5 10  1  0  0  0  0
  6 14  1  0  0  0  0
  6  5  2  0  0  0  0
  7  1  1  0  0  0  0
  8  2  1  0  0  0  0
  9 13  1  0  0  0  0
 11  3  1  0  0  0  0
 12 11  1  0  0  0  0
 14 15  1  0  0  0  0
 15 18  1  0  0  0  0
 16 15  1  0  0  0  0
 17 15  1  0  0  0  0
M  RAD  3   4   2  11   2  12   3
M  END
