Coordinates from ORCA-job p-CH3O-Ph-N2-X-Cl-B3LYPG-6-31G_dp-scan-d09-49-n400
 OpenBabel08281821013D

 18 18  0  0  0  0  0  0  0  0999 V2000
   -1.0513   -1.5643   -1.1497 C   0  0  0  0  0  0  0  0  0  0  0  0
    0.1637   -0.9363   -1.3603 C   0  0  0  0  0  0  0  0  0  0  0  0
    0.3069    0.3997   -0.9543 C   0  0  0  0  0  0  0  0  0  0  0  0
   -0.7431    1.0925   -0.3580 C   0  0  0  0  0  0  0  0  0  0  0  0
   -1.9521    0.4484   -0.1134 C   0  0  0  0  0  0  0  0  0  0  0  0
   -2.1126   -0.8853   -0.5206 C   0  0  0  0  0  0  0  0  0  0  0  0
   -1.2069   -2.5932   -1.4540 H   0  0  0  0  0  0  0  0  0  0  0  0
    0.9904   -1.4584   -1.8247 H   0  0  0  0  0  0  0  0  0  0  0  0
   -0.5688    2.1154   -0.0515 H   0  0  0  0  0  0  0  0  0  0  0  0
   -2.7525    0.9857    0.3794 H   0  0  0  0  0  0  0  0  0  0  0  0
    1.4957    1.1230   -1.1866 N   0  0  0  0  0  0  0  0  0  0  0  0
    2.6461    0.9457   -1.0164 N   0  0  0  0  0  0  0  0  0  0  0  0
    3.1237   -0.8239   -0.0335 Cl  0  0  0  0  0  0  0  0  0  0  0  0
   -3.2475   -1.6062   -0.3569 O   0  0  0  0  0  0  0  0  0  0  0  0
   -4.3645   -0.9909    0.2762 C   0  0  0  0  0  0  0  0  0  0  0  0
   -5.1469   -1.7501    0.3029 H   0  0  0  0  0  0  0  0  0  0  0  0
   -4.7196   -0.1232   -0.2929 H   0  0  0  0  0  0  0  0  0  0  0  0
   -4.1241   -0.6816    1.3002 H   0  0  0  0  0  0  0  0  0  0  0  0
  1  6  1  0  0  0  0
  2  1  2  0  0  0  0
  2  3  1  0  0  0  0
  3  4  2  0  0  0  0
  4  5  1  0  0  0  0
  4  9  1  0  0  0  0
  5 10  1  0  0  0  0
  6 14  1  0  0  0  0
  6  5  2  0  0  0  0
  7  1  1  0  0  0  0
  8  2  1  0  0  0  0
 11 12  1  0  0  0  0
 11  3  1  0  0  0  0
 12 13  1  0  0  0  0
 14 15  1  0  0  0  0
 15 16  1  0  0  0  0
 15 18  1  0  0  0  0
 17 15  1  0  0  0  0
M  RAD  2  11   2  12   2
M  END
