Coordinates from ORCA-job p-CH3O-Ph-N2-X-Cl-B3LYPG-6-31G_dp-scan-d09-49-n400
 OpenBabel08281821013D

 18 17  0  0  0  0  0  0  0  0999 V2000
   -1.3458   -1.6018   -1.6389 C   0  0  0  0  0  0  0  0  0  0  0  0
   -0.0310   -1.2138   -1.8013 C   0  0  0  0  0  0  0  0  0  0  0  0
    0.4768   -0.1685   -1.0098 C   0  0  0  0  0  0  0  0  0  0  0  0
   -0.3189    0.4900   -0.0609 C   0  0  0  0  0  0  0  0  0  0  0  0
   -1.6413    0.0944    0.0954 C   0  0  0  0  0  0  0  0  0  0  0  0
   -2.1612   -0.9505   -0.6895 C   0  0  0  0  0  0  0  0  0  0  0  0
   -1.7776   -2.4037   -2.2270 H   0  0  0  0  0  0  0  0  0  0  0  0
    0.6133   -1.7004   -2.5258 H   0  0  0  0  0  0  0  0  0  0  0  0
    0.1467    1.2909    0.5165 H   0  0  0  0  0  0  0  0  0  0  0  0
   -2.2591    0.6012    0.8266 H   0  0  0  0  0  0  0  0  0  0  0  0
    1.8118    0.1967   -1.2021 N   0  0  0  0  0  0  0  0  0  0  0  0
    2.6360    0.9324   -0.8254 N   0  0  0  0  0  0  0  0  0  0  0  0
    2.0526    2.3250    0.7700 Cl  0  0  0  0  0  0  0  0  0  0  0  0
   -3.4292   -1.4063   -0.6112 O   0  0  0  0  0  0  0  0  0  0  0  0
   -4.3255   -0.8024    0.3192 C   0  0  0  0  0  0  0  0  0  0  0  0
   -5.2712   -1.3319    0.2051 H   0  0  0  0  0  0  0  0  0  0  0  0
   -4.4736    0.2606    0.0963 H   0  0  0  0  0  0  0  0  0  0  0  0
   -3.9663   -0.9149    1.3487 H   0  0  0  0  0  0  0  0  0  0  0  0
  1  6  1  0  0  0  0
  2  1  2  0  0  0  0
  2  3  1  0  0  0  0
  3  4  2  0  0  0  0
  4  5  1  0  0  0  0
  4  9  1  0  0  0  0
  5 10  1  0  0  0  0
  6 14  1  0  0  0  0
  6  5  2  0  0  0  0
  7  1  1  0  0  0  0
  8  2  1  0  0  0  0
 11  3  1  0  0  0  0
 11 12  2  0  0  0  0
 14 15  1  0  0  0  0
 15 18  1  0  0  0  0
 16 15  1  0  0  0  0
 17 15  1  0  0  0  0
M  RAD  2  12   2  13   2
M  END
