Coordinates from ORCA-job p-CH3O-Ph-N2-X-Cl-B3LYPG-6-31G_dp-scan-d09-49-n400
 OpenBabel08281821013D

 18 17  0  0  0  0  0  0  0  0999 V2000
   -1.3827   -1.6980   -1.7229 C   0  0  0  0  0  0  0  0  0  0  0  0
   -0.0726   -1.3712   -1.9367 C   0  0  0  0  0  0  0  0  0  0  0  0
    0.4468   -0.3142   -1.1299 C   0  0  0  0  0  0  0  0  0  0  0  0
   -0.2039    0.4524   -0.1325 C   0  0  0  0  0  0  0  0  0  0  0  0
   -1.5475    0.0442    0.0152 C   0  0  0  0  0  0  0  0  0  0  0  0
   -2.1299   -0.9847   -0.7369 C   0  0  0  0  0  0  0  0  0  0  0  0
   -1.8781   -2.4853   -2.2796 H   0  0  0  0  0  0  0  0  0  0  0  0
    0.5328   -1.8876   -2.6770 H   0  0  0  0  0  0  0  0  0  0  0  0
    0.6694    2.1693    1.1534 H   0  0  0  0  0  0  0  0  0  0  0  0
   -2.1636    0.5558    0.7518 H   0  0  0  0  0  0  0  0  0  0  0  0
    1.7577    0.0263   -1.3290 N   0  0  0  0  0  0  0  0  0  0  0  0
    2.8291    0.3374   -1.4599 N   0  0  0  0  0  0  0  0  0  0  0  0
    1.0386    2.9017    1.6902 Cl  0  0  0  0  0  0  0  0  0  0  0  0
   -3.4083   -1.4062   -0.6258 O   0  0  0  0  0  0  0  0  0  0  0  0
   -4.2631   -0.7724    0.3243 C   0  0  0  0  0  0  0  0  0  0  0  0
   -5.2256   -1.2774    0.2390 H   0  0  0  0  0  0  0  0  0  0  0  0
   -4.3856    0.2928    0.0990 H   0  0  0  0  0  0  0  0  0  0  0  0
   -3.8769   -0.8860    1.3433 H   0  0  0  0  0  0  0  0  0  0  0  0
  1  6  1  0  0  0  0
  2  1  2  0  0  0  0
  2  3  1  0  0  0  0
  3  4  2  0  0  0  0
  4  5  1  0  0  0  0
  5 10  1  0  0  0  0
  6 14  1  0  0  0  0
  6  5  2  0  0  0  0
  7  1  1  0  0  0  0
  8  2  1  0  0  0  0
  9 13  1  0  0  0  0
 11  3  1  0  0  0  0
 12 11  1  0  0  0  0
 14 15  1  0  0  0  0
 15 18  1  0  0  0  0
 16 15  1  0  0  0  0
 17 15  1  0  0  0  0
M  RAD  3   4   2  11   2  12   3
M  END
