Coordinates from ORCA-job p-CH3O-Ph-N2-X-Cl-B3LYPG-6-31G_dp-scan-d09-49-n400
 OpenBabel08281821013D

 18 17  0  0  0  0  0  0  0  0999 V2000
   -1.3460   -1.6083   -1.6452 C   0  0  0  0  0  0  0  0  0  0  0  0
   -0.0294   -1.2312   -1.8185 C   0  0  0  0  0  0  0  0  0  0  0  0
    0.4803   -0.1873   -1.0281 C   0  0  0  0  0  0  0  0  0  0  0  0
   -0.2988    0.4817   -0.0747 C   0  0  0  0  0  0  0  0  0  0  0  0
   -1.6227    0.0951    0.0904 C   0  0  0  0  0  0  0  0  0  0  0  0
   -2.1514   -0.9485   -0.6910 C   0  0  0  0  0  0  0  0  0  0  0  0
   -1.7888   -2.4081   -2.2281 H   0  0  0  0  0  0  0  0  0  0  0  0
    0.6075   -1.7234   -2.5458 H   0  0  0  0  0  0  0  0  0  0  0  0
    0.2149    1.2845    0.4859 H   0  0  0  0  0  0  0  0  0  0  0  0
   -2.2352    0.6056    0.8238 H   0  0  0  0  0  0  0  0  0  0  0  0
    1.8136    0.1966   -1.2021 N   0  0  0  0  0  0  0  0  0  0  0  0
    2.6027    0.9508   -0.7955 N   0  0  0  0  0  0  0  0  0  0  0  0
    1.8803    2.3081    0.8172 Cl  0  0  0  0  0  0  0  0  0  0  0  0
   -3.4215   -1.3975   -0.6063 O   0  0  0  0  0  0  0  0  0  0  0  0
   -4.3100   -0.7869    0.3272 C   0  0  0  0  0  0  0  0  0  0  0  0
   -5.2593   -1.3112    0.2185 H   0  0  0  0  0  0  0  0  0  0  0  0
   -4.4530    0.2765    0.1032 H   0  0  0  0  0  0  0  0  0  0  0  0
   -3.9465   -0.8994    1.3552 H   0  0  0  0  0  0  0  0  0  0  0  0
  1  6  1  0  0  0  0
  2  1  2  0  0  0  0
  2  3  1  0  0  0  0
  3  4  2  0  0  0  0
  4  5  1  0  0  0  0
  4  9  1  0  0  0  0
  5 10  1  0  0  0  0
  6 14  1  0  0  0  0
  6  5  2  0  0  0  0
  7  1  1  0  0  0  0
  8  2  1  0  0  0  0
 11  3  1  0  0  0  0
 11 12  2  0  0  0  0
 14 15  1  0  0  0  0
 15 18  1  0  0  0  0
 16 15  1  0  0  0  0
 17 15  1  0  0  0  0
M  RAD  2  12   2  13   2
M  END
