Coordinates from ORCA-job p-CH3O-Ph-N2-X-Cl-B3LYPG-6-31G_dp-scan-d09-49-n400
 OpenBabel08281821013D

 18 17  0  0  0  0  0  0  0  0999 V2000
   -1.3485   -1.6204   -1.6587 C   0  0  0  0  0  0  0  0  0  0  0  0
   -0.0301   -1.2619   -1.8478 C   0  0  0  0  0  0  0  0  0  0  0  0
    0.4762   -0.2189   -1.0551 C   0  0  0  0  0  0  0  0  0  0  0  0
   -0.2660    0.4749   -0.0944 C   0  0  0  0  0  0  0  0  0  0  0  0
   -1.5935    0.0973    0.0784 C   0  0  0  0  0  0  0  0  0  0  0  0
   -2.1366   -0.9444   -0.6961 C   0  0  0  0  0  0  0  0  0  0  0  0
   -1.8093   -2.4166   -2.2323 H   0  0  0  0  0  0  0  0  0  0  0  0
    0.5963   -1.7629   -2.5785 H   0  0  0  0  0  0  0  0  0  0  0  0
    0.3509    1.3143    0.4623 H   0  0  0  0  0  0  0  0  0  0  0  0
   -2.2017    0.6124    0.8135 H   0  0  0  0  0  0  0  0  0  0  0  0
    1.8080    0.1951   -1.1942 N   0  0  0  0  0  0  0  0  0  0  0  0
    2.5680    0.9536   -0.7721 N   0  0  0  0  0  0  0  0  0  0  0  0
    1.5948    2.2903    0.9049 Cl  0  0  0  0  0  0  0  0  0  0  0  0
   -3.4096   -1.3840   -0.6014 O   0  0  0  0  0  0  0  0  0  0  0  0
   -4.2859   -0.7661    0.3392 C   0  0  0  0  0  0  0  0  0  0  0  0
   -5.2393   -1.2849    0.2400 H   0  0  0  0  0  0  0  0  0  0  0  0
   -4.4238    0.2978    0.1147 H   0  0  0  0  0  0  0  0  0  0  0  0
   -3.9131   -0.8787    1.3637 H   0  0  0  0  0  0  0  0  0  0  0  0
  1  6  1  0  0  0  0
  2  1  2  0  0  0  0
  2  3  1  0  0  0  0
  3  4  2  0  0  0  0
  4  5  1  0  0  0  0
  4  9  1  0  0  0  0
  5 10  1  0  0  0  0
  6 14  1  0  0  0  0
  6  5  2  0  0  0  0
  7  1  1  0  0  0  0
  8  2  1  0  0  0  0
 11  3  1  0  0  0  0
 11 12  2  0  0  0  0
 14 15  1  0  0  0  0
 15 18  1  0  0  0  0
 16 15  1  0  0  0  0
 17 15  1  0  0  0  0
M  RAD  2  12   2  13   2
M  END
