Coordinates from ORCA-job p-CH3O-Ph-N2-X-Cl-B3LYPG-6-31G_dp-scan-d09-49-n400
 OpenBabel08281821013D

 18 18  0  0  0  0  0  0  0  0999 V2000
   -1.0894   -1.5726   -1.2523 C   0  0  0  0  0  0  0  0  0  0  0  0
    0.1254   -0.9543   -1.4974 C   0  0  0  0  0  0  0  0  0  0  0  0
    0.3106    0.3610   -1.0539 C   0  0  0  0  0  0  0  0  0  0  0  0
   -0.6935    1.0539   -0.3878 C   0  0  0  0  0  0  0  0  0  0  0  0
   -1.9057    0.4203   -0.1204 C   0  0  0  0  0  0  0  0  0  0  0  0
   -2.1111   -0.8949   -0.5622 C   0  0  0  0  0  0  0  0  0  0  0  0
   -1.2723   -2.5908   -1.5765 H   0  0  0  0  0  0  0  0  0  0  0  0
    0.9241   -1.4755   -2.0121 H   0  0  0  0  0  0  0  0  0  0  0  0
   -0.4960    2.0611   -0.0429 H   0  0  0  0  0  0  0  0  0  0  0  0
   -2.6734    0.9552    0.4246 H   0  0  0  0  0  0  0  0  0  0  0  0
    1.5238    1.0440   -1.3337 N   0  0  0  0  0  0  0  0  0  0  0  0
    2.6324    0.9293   -0.9581 N   0  0  0  0  0  0  0  0  0  0  0  0
    2.8959   -0.5257    0.4869 Cl  0  0  0  0  0  0  0  0  0  0  0  0
   -3.2548   -1.6000   -0.3744 O   0  0  0  0  0  0  0  0  0  0  0  0
   -4.3279   -0.9837    0.3275 C   0  0  0  0  0  0  0  0  0  0  0  0
   -5.1269   -1.7253    0.3617 H   0  0  0  0  0  0  0  0  0  0  0  0
   -4.6869   -0.0880   -0.1938 H   0  0  0  0  0  0  0  0  0  0  0  0
   -4.0374   -0.7170    1.3508 H   0  0  0  0  0  0  0  0  0  0  0  0
  1  6  1  0  0  0  0
  2  1  2  0  0  0  0
  2  3  1  0  0  0  0
  3  4  2  0  0  0  0
  4  5  1  0  0  0  0
  4  9  1  0  0  0  0
  5 10  1  0  0  0  0
  6 14  1  0  0  0  0
  6  5  2  0  0  0  0
  7  1  1  0  0  0  0
  8  2  1  0  0  0  0
 11  3  1  0  0  0  0
 11 12  1  0  0  0  0
 12 13  1  0  0  0  0
 14 15  1  0  0  0  0
 15 16  1  0  0  0  0
 15 18  1  0  0  0  0
 17 15  1  0  0  0  0
M  RAD  2  11   2  12   2
M  END
