Coordinates from ORCA-job p-CH3O-Ph-N2-X-Cl-B3LYPG-6-31G_dp-scan-d09-49-n400
 OpenBabel08281821013D

 18 17  0  0  0  0  0  0  0  0999 V2000
   -1.3461   -1.6095   -1.6467 C   0  0  0  0  0  0  0  0  0  0  0  0
   -0.0291   -1.2347   -1.8219 C   0  0  0  0  0  0  0  0  0  0  0  0
    0.4807   -0.1913   -1.0314 C   0  0  0  0  0  0  0  0  0  0  0  0
   -0.2946    0.4800   -0.0769 C   0  0  0  0  0  0  0  0  0  0  0  0
   -1.6189    0.0950    0.0896 C   0  0  0  0  0  0  0  0  0  0  0  0
   -2.1494   -0.9480   -0.6914 C   0  0  0  0  0  0  0  0  0  0  0  0
   -1.7911   -2.4087   -2.2286 H   0  0  0  0  0  0  0  0  0  0  0  0
    0.6063   -1.7280   -2.5498 H   0  0  0  0  0  0  0  0  0  0  0  0
    0.2294    1.2841    0.4807 H   0  0  0  0  0  0  0  0  0  0  0  0
   -2.2304    0.6062    0.8234 H   0  0  0  0  0  0  0  0  0  0  0  0
    1.8137    0.1964   -1.2014 N   0  0  0  0  0  0  0  0  0  0  0  0
    2.5965    0.9536   -0.7902 N   0  0  0  0  0  0  0  0  0  0  0  0
    1.8453    2.3057    0.8257 Cl  0  0  0  0  0  0  0  0  0  0  0  0
   -3.4200   -1.3956   -0.6056 O   0  0  0  0  0  0  0  0  0  0  0  0
   -4.3070   -0.7839    0.3287 C   0  0  0  0  0  0  0  0  0  0  0  0
   -5.2570   -1.3071    0.2208 H   0  0  0  0  0  0  0  0  0  0  0  0
   -4.4489    0.2797    0.1047 H   0  0  0  0  0  0  0  0  0  0  0  0
   -3.9427   -0.8967    1.3563 H   0  0  0  0  0  0  0  0  0  0  0  0
  1  6  1  0  0  0  0
  2  1  2  0  0  0  0
  2  3  1  0  0  0  0
  3  4  2  0  0  0  0
  4  5  1  0  0  0  0
  4  9  1  0  0  0  0
  5 10  1  0  0  0  0
  6 14  1  0  0  0  0
  6  5  2  0  0  0  0
  7  1  1  0  0  0  0
  8  2  1  0  0  0  0
 11  3  1  0  0  0  0
 11 12  2  0  0  0  0
 14 15  1  0  0  0  0
 15 18  1  0  0  0  0
 16 15  1  0  0  0  0
 17 15  1  0  0  0  0
M  RAD  2  12   2  13   2
M  END
