Coordinates from ORCA-job p-CH3O-Ph-N2-X-Cl-B3LYPG-6-31G_dp-scan-d09-49-n400
 OpenBabel08281821013D

 18 18  0  0  0  0  0  0  0  0999 V2000
   -1.3464   -1.5897   -1.6278 C   0  0  0  0  0  0  0  0  0  0  0  0
   -0.0355   -1.1815   -1.7689 C   0  0  0  0  0  0  0  0  0  0  0  0
    0.4640   -0.1332   -0.9719 C   0  0  0  0  0  0  0  0  0  0  0  0
   -0.3599    0.5071   -0.0316 C   0  0  0  0  0  0  0  0  0  0  0  0
   -1.6792    0.0923    0.1052 C   0  0  0  0  0  0  0  0  0  0  0  0
   -2.1814   -0.9550   -0.6871 C   0  0  0  0  0  0  0  0  0  0  0  0
   -1.7573   -2.3947   -2.2267 H   0  0  0  0  0  0  0  0  0  0  0  0
    0.6231   -1.6573   -2.4875 H   0  0  0  0  0  0  0  0  0  0  0  0
    0.0271    1.3124    0.5771 H   0  0  0  0  0  0  0  0  0  0  0  0
   -2.3095    0.5904    0.8316 H   0  0  0  0  0  0  0  0  0  0  0  0
    1.8016    0.2041   -1.1889 N   0  0  0  0  0  0  0  0  0  0  0  0
    2.7000    0.8870   -0.8893 N   0  0  0  0  0  0  0  0  0  0  0  0
    2.4051    2.3695    0.6766 Cl  0  0  0  0  0  0  0  0  0  0  0  0
   -3.4446   -1.4240   -0.6227 O   0  0  0  0  0  0  0  0  0  0  0  0
   -4.3562   -0.8348    0.3025 C   0  0  0  0  0  0  0  0  0  0  0  0
   -5.2949   -1.3740    0.1768 H   0  0  0  0  0  0  0  0  0  0  0  0
   -4.5140    0.2276    0.0837 H   0  0  0  0  0  0  0  0  0  0  0  0
   -4.0054   -0.9492    1.3348 H   0  0  0  0  0  0  0  0  0  0  0  0
  1  6  1  0  0  0  0
  2  1  2  0  0  0  0
  2  3  1  0  0  0  0
  3  4  2  0  0  0  0
  4  5  1  0  0  0  0
  4  9  1  0  0  0  0
  5 10  1  0  0  0  0
  6 14  1  0  0  0  0
  6  5  2  0  0  0  0
  7  1  1  0  0  0  0
  8  2  1  0  0  0  0
 11  3  1  0  0  0  0
 11 12  2  0  0  0  0
 12 13  1  0  0  0  0
 14 15  1  0  0  0  0
 15 18  1  0  0  0  0
 16 15  1  0  0  0  0
 17 15  1  0  0  0  0
M  END
