Coordinates from ORCA-job p-CH3O-Ph-N2-X-Cl-B3LYPG-6-31G_dp-scan-d09-49-n400
 OpenBabel08281821013D

 18 18  0  0  0  0  0  0  0  0999 V2000
   -1.3464   -1.5928   -1.6314 C   0  0  0  0  0  0  0  0  0  0  0  0
   -0.0340   -1.1911   -1.7784 C   0  0  0  0  0  0  0  0  0  0  0  0
    0.4687   -0.1445   -0.9826 C   0  0  0  0  0  0  0  0  0  0  0  0
   -0.3468    0.5008   -0.0393 C   0  0  0  0  0  0  0  0  0  0  0  0
   -1.6673    0.0923    0.1031 C   0  0  0  0  0  0  0  0  0  0  0  0
   -2.1753   -0.9534   -0.6878 C   0  0  0  0  0  0  0  0  0  0  0  0
   -1.7639   -2.3963   -2.2278 H   0  0  0  0  0  0  0  0  0  0  0  0
    0.6203   -1.6700   -2.4989 H   0  0  0  0  0  0  0  0  0  0  0  0
    0.0625    1.3039    0.5609 H   0  0  0  0  0  0  0  0  0  0  0  0
   -2.2936    0.5927    0.8314 H   0  0  0  0  0  0  0  0  0  0  0  0
    1.8061    0.1991   -1.1932 N   0  0  0  0  0  0  0  0  0  0  0  0
    2.6818    0.9007   -0.8692 N   0  0  0  0  0  0  0  0  0  0  0  0
    2.2954    2.3600    0.7003 Cl  0  0  0  0  0  0  0  0  0  0  0  0
   -3.4402   -1.4180   -0.6197 O   0  0  0  0  0  0  0  0  0  0  0  0
   -4.3471   -0.8247    0.3074 C   0  0  0  0  0  0  0  0  0  0  0  0
   -5.2881   -1.3604    0.1845 H   0  0  0  0  0  0  0  0  0  0  0  0
   -4.5015    0.2382    0.0882 H   0  0  0  0  0  0  0  0  0  0  0  0
   -3.9941   -0.9395    1.3388 H   0  0  0  0  0  0  0  0  0  0  0  0
  1  6  1  0  0  0  0
  2  1  2  0  0  0  0
  2  3  1  0  0  0  0
  3  4  2  0  0  0  0
  4  5  1  0  0  0  0
  4  9  1  0  0  0  0
  5 10  1  0  0  0  0
  6 14  1  0  0  0  0
  6  5  2  0  0  0  0
  7  1  1  0  0  0  0
  8  2  1  0  0  0  0
 11  3  1  0  0  0  0
 11 12  2  0  0  0  0
 12 13  1  0  0  0  0
 14 15  1  0  0  0  0
 15 18  1  0  0  0  0
 16 15  1  0  0  0  0
 17 15  1  0  0  0  0
M  END
