Coordinates from ORCA-job p-CH3O-Ph-N2-X-Cl-B3LYPG-6-31G_dp-scan-d09-49-n400
 OpenBabel08281821013D

 18 18  0  0  0  0  0  0  0  0999 V2000
   -1.1541   -1.5959   -1.3587 C   0  0  0  0  0  0  0  0  0  0  0  0
    0.0714   -1.0064   -1.6232 C   0  0  0  0  0  0  0  0  0  0  0  0
    0.3344    0.2676   -1.1074 C   0  0  0  0  0  0  0  0  0  0  0  0
   -0.6219    0.9709   -0.3795 C   0  0  0  0  0  0  0  0  0  0  0  0
   -1.8543    0.3732   -0.1183 C   0  0  0  0  0  0  0  0  0  0  0  0
   -2.1249   -0.9140   -0.6042 C   0  0  0  0  0  0  0  0  0  0  0  0
   -1.3857   -2.5899   -1.7239 H   0  0  0  0  0  0  0  0  0  0  0  0
    0.8263   -1.5267   -2.2022 H   0  0  0  0  0  0  0  0  0  0  0  0
   -0.4064    1.9671   -0.0106 H   0  0  0  0  0  0  0  0  0  0  0  0
   -2.5883    0.9176    0.4628 H   0  0  0  0  0  0  0  0  0  0  0  0
    1.5745    0.8921   -1.4148 N   0  0  0  0  0  0  0  0  0  0  0  0
    2.6249    0.9757   -0.9007 N   0  0  0  0  0  0  0  0  0  0  0  0
    2.7961   -0.0288    0.9238 Cl  0  0  0  0  0  0  0  0  0  0  0  0
   -3.2888   -1.5830   -0.4075 O   0  0  0  0  0  0  0  0  0  0  0  0
   -4.3093   -0.9622    0.3651 C   0  0  0  0  0  0  0  0  0  0  0  0
   -5.1337   -1.6754    0.3985 H   0  0  0  0  0  0  0  0  0  0  0  0
   -4.6552   -0.0308   -0.0997 H   0  0  0  0  0  0  0  0  0  0  0  0
   -3.9685   -0.7541    1.3866 H   0  0  0  0  0  0  0  0  0  0  0  0
  1  6  1  0  0  0  0
  2  1  2  0  0  0  0
  2  3  1  0  0  0  0
  3  4  2  0  0  0  0
  4  5  1  0  0  0  0
  4  9  1  0  0  0  0
  5 10  1  0  0  0  0
  6 14  1  0  0  0  0
  6  5  2  0  0  0  0
  7  1  1  0  0  0  0
  8  2  1  0  0  0  0
 11  3  1  0  0  0  0
 11 12  1  0  0  0  0
 12 13  1  0  0  0  0
 14 15  1  0  0  0  0
 15 16  1  0  0  0  0
 15 18  1  0  0  0  0
 17 15  1  0  0  0  0
M  RAD  2  11   2  12   2
M  END
