Coordinates from ORCA-job p-CH3O-Ph-N2-X-Cl-B3LYPG-6-31G_dp-scan-d09-49-n400
 OpenBabel08281821013D

 18 18  0  0  0  0  0  0  0  0999 V2000
   -1.0823   -1.5700   -1.2377 C   0  0  0  0  0  0  0  0  0  0  0  0
    0.1320   -0.9492   -1.4782 C   0  0  0  0  0  0  0  0  0  0  0  0
    0.3089    0.3701   -1.0421 C   0  0  0  0  0  0  0  0  0  0  0  0
   -0.7021    1.0623   -0.3857 C   0  0  0  0  0  0  0  0  0  0  0  0
   -1.9128    0.4256   -0.1200 C   0  0  0  0  0  0  0  0  0  0  0  0
   -2.1104   -0.8927   -0.5564 C   0  0  0  0  0  0  0  0  0  0  0  0
   -1.2600   -2.5904   -1.5580 H   0  0  0  0  0  0  0  0  0  0  0  0
    0.9358   -1.4702   -1.9846 H   0  0  0  0  0  0  0  0  0  0  0  0
   -0.5077    2.0714   -0.0454 H   0  0  0  0  0  0  0  0  0  0  0  0
   -2.6854    0.9601    0.4185 H   0  0  0  0  0  0  0  0  0  0  0  0
    1.5185    1.0594   -1.3161 N   0  0  0  0  0  0  0  0  0  0  0  0
    2.6343    0.9265   -0.9677 N   0  0  0  0  0  0  0  0  0  0  0  0
    2.9200   -0.5807    0.4180 Cl  0  0  0  0  0  0  0  0  0  0  0  0
   -3.2520   -1.6013   -0.3714 O   0  0  0  0  0  0  0  0  0  0  0  0
   -4.3319   -0.9859    0.3211 C   0  0  0  0  0  0  0  0  0  0  0  0
   -5.1279   -1.7308    0.3546 H   0  0  0  0  0  0  0  0  0  0  0  0
   -4.6917   -0.0946   -0.2073 H   0  0  0  0  0  0  0  0  0  0  0  0
   -4.0485   -0.7124    1.3445 H   0  0  0  0  0  0  0  0  0  0  0  0
  1  6  1  0  0  0  0
  2  1  2  0  0  0  0
  2  3  1  0  0  0  0
  3  4  2  0  0  0  0
  4  5  1  0  0  0  0
  4  9  1  0  0  0  0
  5 10  1  0  0  0  0
  6 14  1  0  0  0  0
  6  5  2  0  0  0  0
  7  1  1  0  0  0  0
  8  2  1  0  0  0  0
 11  3  1  0  0  0  0
 11 12  1  0  0  0  0
 12 13  1  0  0  0  0
 14 15  1  0  0  0  0
 15 16  1  0  0  0  0
 15 18  1  0  0  0  0
 17 15  1  0  0  0  0
M  RAD  2  11   2  12   2
M  END
