Coordinates from ORCA-job p-CH3O-Ph-N2-X-Cl-B3LYPG-6-31G_dp-scan-d09-49-n400
 OpenBabel08281821013D

 18 17  0  0  0  0  0  0  0  0999 V2000
   -1.3480   -1.6186   -1.6570 C   0  0  0  0  0  0  0  0  0  0  0  0
   -0.0295   -1.2582   -1.8445 C   0  0  0  0  0  0  0  0  0  0  0  0
    0.4780   -0.2154   -1.0525 C   0  0  0  0  0  0  0  0  0  0  0  0
   -0.2695    0.4750   -0.0928 C   0  0  0  0  0  0  0  0  0  0  0  0
   -1.5965    0.0974    0.0799 C   0  0  0  0  0  0  0  0  0  0  0  0
   -2.1380   -0.9446   -0.6954 C   0  0  0  0  0  0  0  0  0  0  0  0
   -1.8068   -2.4152   -2.2316 H   0  0  0  0  0  0  0  0  0  0  0  0
    0.5978   -1.7585   -2.5749 H   0  0  0  0  0  0  0  0  0  0  0  0
    0.3328    1.3049    0.4603 H   0  0  0  0  0  0  0  0  0  0  0  0
   -2.2046    0.6123    0.8150 H   0  0  0  0  0  0  0  0  0  0  0  0
    1.8100    0.1953   -1.1954 N   0  0  0  0  0  0  0  0  0  0  0  0
    2.5682    0.9568   -0.7696 N   0  0  0  0  0  0  0  0  0  0  0  0
    1.6255    2.2902    0.8929 Cl  0  0  0  0  0  0  0  0  0  0  0  0
   -3.4107   -1.3850   -0.6017 O   0  0  0  0  0  0  0  0  0  0  0  0
   -4.2881   -0.7678    0.3382 C   0  0  0  0  0  0  0  0  0  0  0  0
   -5.2412   -1.2871    0.2382 H   0  0  0  0  0  0  0  0  0  0  0  0
   -4.4265    0.2961    0.1139 H   0  0  0  0  0  0  0  0  0  0  0  0
   -3.9163   -0.8805    1.3631 H   0  0  0  0  0  0  0  0  0  0  0  0
  1  6  1  0  0  0  0
  2  1  2  0  0  0  0
  2  3  1  0  0  0  0
  3  4  2  0  0  0  0
  4  5  1  0  0  0  0
  4  9  1  0  0  0  0
  5 10  1  0  0  0  0
  6 14  1  0  0  0  0
  6  5  2  0  0  0  0
  7  1  1  0  0  0  0
  8  2  1  0  0  0  0
 11  3  1  0  0  0  0
 11 12  2  0  0  0  0
 14 15  1  0  0  0  0
 15 18  1  0  0  0  0
 16 15  1  0  0  0  0
 17 15  1  0  0  0  0
M  RAD  2  12   2  13   2
M  END
