Coordinates from ORCA-job p-CH3O-Ph-N2-X-Cl-B3LYPG-6-31G_dp-scan-d09-49-n400
 OpenBabel08281821013D

 18 18  0  0  0  0  0  0  0  0999 V2000
   -1.2303   -1.6202   -1.4610 C   0  0  0  0  0  0  0  0  0  0  0  0
    0.0148   -1.0749   -1.7197 C   0  0  0  0  0  0  0  0  0  0  0  0
    0.3734    0.1378   -1.1136 C   0  0  0  0  0  0  0  0  0  0  0  0
   -0.5328    0.8438   -0.3184 C   0  0  0  0  0  0  0  0  0  0  0  0
   -1.7949    0.3023   -0.0839 C   0  0  0  0  0  0  0  0  0  0  0  0
   -2.1453   -0.9377   -0.6389 C   0  0  0  0  0  0  0  0  0  0  0  0
   -1.5257   -2.5716   -1.8882 H   0  0  0  0  0  0  0  0  0  0  0  0
    0.7237   -1.5865   -2.3616 H   0  0  0  0  0  0  0  0  0  0  0  0
   -0.2833    1.8155    0.0902 H   0  0  0  0  0  0  0  0  0  0  0  0
   -2.4930    0.8550    0.5324 H   0  0  0  0  0  0  0  0  0  0  0  0
    1.6408    0.6763   -1.4281 N   0  0  0  0  0  0  0  0  0  0  0  0
    2.6293    1.0095   -0.8985 N   0  0  0  0  0  0  0  0  0  0  0  0
    2.7322    0.6850    1.1997 Cl  0  0  0  0  0  0  0  0  0  0  0  0
   -3.3388   -1.5518   -0.4581 O   0  0  0  0  0  0  0  0  0  0  0  0
   -4.3104   -0.9286    0.3754 C   0  0  0  0  0  0  0  0  0  0  0  0
   -5.1698   -1.5997    0.3834 H   0  0  0  0  0  0  0  0  0  0  0  0
   -4.6158    0.0459   -0.0240 H   0  0  0  0  0  0  0  0  0  0  0  0
   -3.9376   -0.8029    1.3989 H   0  0  0  0  0  0  0  0  0  0  0  0
  1  6  1  0  0  0  0
  2  1  2  0  0  0  0
  2  3  1  0  0  0  0
  3  4  2  0  0  0  0
  4  5  1  0  0  0  0
  4  9  1  0  0  0  0
  5 10  1  0  0  0  0
  6 14  1  0  0  0  0
  6  5  2  0  0  0  0
  7  1  1  0  0  0  0
  8  2  1  0  0  0  0
 11  3  1  0  0  0  0
 11 12  2  0  0  0  0
 12 13  1  0  0  0  0
 14 15  1  0  0  0  0
 15 16  1  0  0  0  0
 15 18  1  0  0  0  0
 17 15  1  0  0  0  0
M  END
