Coordinates from ORCA-job p-CH3O-Ph-N2-X-Cl-B3LYPG-6-31G_dp-scan-d09-49-n400
 OpenBabel08281821013D

 18 17  0  0  0  0  0  0  0  0999 V2000
   -1.3578   -1.6560   -1.6919 C   0  0  0  0  0  0  0  0  0  0  0  0
   -0.0483   -1.3155   -1.8930 C   0  0  0  0  0  0  0  0  0  0  0  0
    0.4592   -0.2579   -1.0825 C   0  0  0  0  0  0  0  0  0  0  0  0
   -0.2243    0.4866   -0.0936 C   0  0  0  0  0  0  0  0  0  0  0  0
   -1.5599    0.0767    0.0500 C   0  0  0  0  0  0  0  0  0  0  0  0
   -2.1246   -0.9567   -0.7124 C   0  0  0  0  0  0  0  0  0  0  0  0
   -1.8377   -2.4470   -2.2568 H   0  0  0  0  0  0  0  0  0  0  0  0
    0.5680   -1.8239   -2.6292 H   0  0  0  0  0  0  0  0  0  0  0  0
    0.5229    1.7832    0.8454 H   0  0  0  0  0  0  0  0  0  0  0  0
   -2.1784    0.5856    0.7852 H   0  0  0  0  0  0  0  0  0  0  0  0
    1.7675    0.0976   -1.2668 N   0  0  0  0  0  0  0  0  0  0  0  0
    2.8358    0.4194   -1.3867 N   0  0  0  0  0  0  0  0  0  0  0  0
    1.0906    2.7240    1.5038 Cl  0  0  0  0  0  0  0  0  0  0  0  0
   -3.3965   -1.3888   -0.6133 O   0  0  0  0  0  0  0  0  0  0  0  0
   -4.2681   -0.7662    0.3320 C   0  0  0  0  0  0  0  0  0  0  0  0
   -5.2238   -1.2811    0.2346 H   0  0  0  0  0  0  0  0  0  0  0  0
   -4.3984    0.2980    0.1077 H   0  0  0  0  0  0  0  0  0  0  0  0
   -3.8897   -0.8810    1.3535 H   0  0  0  0  0  0  0  0  0  0  0  0
  1  6  1  0  0  0  0
  2  1  2  0  0  0  0
  2  3  1  0  0  0  0
  3  4  2  0  0  0  0
  4  5  1  0  0  0  0
  5 10  1  0  0  0  0
  6 14  1  0  0  0  0
  6  5  2  0  0  0  0
  7  1  1  0  0  0  0
  8  2  1  0  0  0  0
  9 13  1  0  0  0  0
 11  3  1  0  0  0  0
 12 11  1  0  0  0  0
 14 15  1  0  0  0  0
 15 18  1  0  0  0  0
 16 15  1  0  0  0  0
 17 15  1  0  0  0  0
M  RAD  3   4   2  11   2  12   3
M  END
