Coordinates from ORCA-job p-CH3O-Ph-N2-X-Cl-B3LYPG-6-31G_dp-scan-d09-49-n400
 OpenBabel08281821013D

 18 17  0  0  0  0  0  0  0  0999 V2000
   -1.3458   -1.6012   -1.6383 C   0  0  0  0  0  0  0  0  0  0  0  0
   -0.0312   -1.2121   -1.7997 C   0  0  0  0  0  0  0  0  0  0  0  0
    0.4764   -0.1667   -1.0079 C   0  0  0  0  0  0  0  0  0  0  0  0
   -0.3208    0.4908   -0.0594 C   0  0  0  0  0  0  0  0  0  0  0  0
   -1.6431    0.0944    0.0959 C   0  0  0  0  0  0  0  0  0  0  0  0
   -2.1622   -0.9507   -0.6893 C   0  0  0  0  0  0  0  0  0  0  0  0
   -1.7766   -2.4032   -2.2271 H   0  0  0  0  0  0  0  0  0  0  0  0
    0.6138   -1.6982   -2.5238 H   0  0  0  0  0  0  0  0  0  0  0  0
    0.1403    1.2918    0.5197 H   0  0  0  0  0  0  0  0  0  0  0  0
   -2.2615    0.6007    0.8269 H   0  0  0  0  0  0  0  0  0  0  0  0
    1.8116    0.1967   -1.2017 N   0  0  0  0  0  0  0  0  0  0  0  0
    2.6394    0.9303   -0.8284 N   0  0  0  0  0  0  0  0  0  0  0  0
    2.0696    2.3272    0.7651 Cl  0  0  0  0  0  0  0  0  0  0  0  0
   -3.4300   -1.4071   -0.6118 O   0  0  0  0  0  0  0  0  0  0  0  0
   -4.3270   -0.8040    0.3184 C   0  0  0  0  0  0  0  0  0  0  0  0
   -5.2724   -1.3339    0.2037 H   0  0  0  0  0  0  0  0  0  0  0  0
   -4.4756    0.2590    0.0958 H   0  0  0  0  0  0  0  0  0  0  0  0
   -3.9682   -0.9166    1.3481 H   0  0  0  0  0  0  0  0  0  0  0  0
  1  6  1  0  0  0  0
  2  1  2  0  0  0  0
  2  3  1  0  0  0  0
  3  4  2  0  0  0  0
  4  5  1  0  0  0  0
  4  9  1  0  0  0  0
  5 10  1  0  0  0  0
  6 14  1  0  0  0  0
  6  5  2  0  0  0  0
  7  1  1  0  0  0  0
  8  2  1  0  0  0  0
 11  3  1  0  0  0  0
 11 12  2  0  0  0  0
 14 15  1  0  0  0  0
 15 18  1  0  0  0  0
 16 15  1  0  0  0  0
 17 15  1  0  0  0  0
M  RAD  2  12   2  13   2
M  END
