Coordinates from ORCA-job p-CH3O-Ph-N2-X-Cl-B3LYPG-6-31G_dp-scan-d09-49-n400
 OpenBabel08281821013D

 18 17  0  0  0  0  0  0  0  0999 V2000
   -1.3489   -1.6214   -1.6596 C   0  0  0  0  0  0  0  0  0  0  0  0
   -0.0305   -1.2637   -1.8495 C   0  0  0  0  0  0  0  0  0  0  0  0
    0.4751   -0.2206   -1.0563 C   0  0  0  0  0  0  0  0  0  0  0  0
   -0.2644    0.4750   -0.0950 C   0  0  0  0  0  0  0  0  0  0  0  0
   -1.5921    0.0973    0.0776 C   0  0  0  0  0  0  0  0  0  0  0  0
   -2.1360   -0.9444   -0.6965 C   0  0  0  0  0  0  0  0  0  0  0  0
   -1.8106   -2.4174   -2.2326 H   0  0  0  0  0  0  0  0  0  0  0  0
    0.5955   -1.7652   -2.5803 H   0  0  0  0  0  0  0  0  0  0  0  0
    0.3603    1.3202    0.4642 H   0  0  0  0  0  0  0  0  0  0  0  0
   -2.2004    0.6124    0.8127 H   0  0  0  0  0  0  0  0  0  0  0  0
    1.8067    0.1951   -1.1935 N   0  0  0  0  0  0  0  0  0  0  0  0
    2.5687    0.9512   -0.7743 N   0  0  0  0  0  0  0  0  0  0  0  0
    1.5800    2.2911    0.9113 Cl  0  0  0  0  0  0  0  0  0  0  0  0
   -3.4091   -1.3836   -0.6013 O   0  0  0  0  0  0  0  0  0  0  0  0
   -4.2849   -0.7654    0.3395 C   0  0  0  0  0  0  0  0  0  0  0  0
   -5.2384   -1.2840    0.2408 H   0  0  0  0  0  0  0  0  0  0  0  0
   -4.4226    0.2985    0.1150 H   0  0  0  0  0  0  0  0  0  0  0  0
   -3.9117   -0.8779    1.3639 H   0  0  0  0  0  0  0  0  0  0  0  0
  1  6  1  0  0  0  0
  2  1  2  0  0  0  0
  2  3  1  0  0  0  0
  3  4  2  0  0  0  0
  4  5  1  0  0  0  0
  4  9  1  0  0  0  0
  5 10  1  0  0  0  0
  6 14  1  0  0  0  0
  6  5  2  0  0  0  0
  7  1  1  0  0  0  0
  8  2  1  0  0  0  0
 11  3  1  0  0  0  0
 11 12  2  0  0  0  0
 14 15  1  0  0  0  0
 15 18  1  0  0  0  0
 16 15  1  0  0  0  0
 17 15  1  0  0  0  0
M  RAD  2  12   2  13   2
M  END
