Coordinates from ORCA-job p-CH3O-Ph-N2-X-Cl-B3LYPG-6-31G_dp-scan-d09-49-n400
 OpenBabel08281821013D

 18 17  0  0  0  0  0  0  0  0999 V2000
   -1.3495   -1.6229   -1.6610 C   0  0  0  0  0  0  0  0  0  0  0  0
   -0.0313   -1.2665   -1.8518 C   0  0  0  0  0  0  0  0  0  0  0  0
    0.4734   -0.2231   -1.0579 C   0  0  0  0  0  0  0  0  0  0  0  0
   -0.2621    0.4751   -0.0959 C   0  0  0  0  0  0  0  0  0  0  0  0
   -1.5902    0.0970    0.0763 C   0  0  0  0  0  0  0  0  0  0  0  0
   -2.1354   -0.9446   -0.6971 C   0  0  0  0  0  0  0  0  0  0  0  0
   -1.8125   -2.4187   -2.2333 H   0  0  0  0  0  0  0  0  0  0  0  0
    0.5942   -1.7684   -2.5829 H   0  0  0  0  0  0  0  0  0  0  0  0
    0.3746    1.3303    0.4685 H   0  0  0  0  0  0  0  0  0  0  0  0
   -2.1987    0.6121    0.8115 H   0  0  0  0  0  0  0  0  0  0  0  0
    1.8049    0.1946   -1.1929 N   0  0  0  0  0  0  0  0  0  0  0  0
    2.5705    0.9471   -0.7788 N   0  0  0  0  0  0  0  0  0  0  0  0
    1.5589    2.2927    0.9210 Cl  0  0  0  0  0  0  0  0  0  0  0  0
   -3.4085   -1.3831   -0.6013 O   0  0  0  0  0  0  0  0  0  0  0  0
   -4.2836   -0.7644    0.3400 C   0  0  0  0  0  0  0  0  0  0  0  0
   -5.2374   -1.2828    0.2419 H   0  0  0  0  0  0  0  0  0  0  0  0
   -4.4209    0.2994    0.1153 H   0  0  0  0  0  0  0  0  0  0  0  0
   -3.9098   -0.8769    1.3641 H   0  0  0  0  0  0  0  0  0  0  0  0
  1  6  1  0  0  0  0
  2  1  2  0  0  0  0
  2  3  1  0  0  0  0
  3  4  2  0  0  0  0
  4  5  1  0  0  0  0
  4  9  1  0  0  0  0
  5 10  1  0  0  0  0
  6 14  1  0  0  0  0
  6  5  2  0  0  0  0
  7  1  1  0  0  0  0
  8  2  1  0  0  0  0
 11  3  1  0  0  0  0
 11 12  2  0  0  0  0
 14 15  1  0  0  0  0
 15 18  1  0  0  0  0
 16 15  1  0  0  0  0
 17 15  1  0  0  0  0
M  RAD  2  12   2  13   2
M  END
