Coordinates from ORCA-job p-CH3O-Ph-N2-X-Cl-B3LYPG-6-31G_dp-scan-d09-49-n400
 OpenBabel08281821013D

 18 18  0  0  0  0  0  0  0  0999 V2000
   -1.1902   -1.6089   -1.4076 C   0  0  0  0  0  0  0  0  0  0  0  0
    0.0436   -1.0386   -1.6731 C   0  0  0  0  0  0  0  0  0  0  0  0
    0.3517    0.2084   -1.1150 C   0  0  0  0  0  0  0  0  0  0  0  0
   -0.5811    0.9148   -0.3562 C   0  0  0  0  0  0  0  0  0  0  0  0
   -1.8271    0.3419   -0.1059 C   0  0  0  0  0  0  0  0  0  0  0  0
   -2.1345   -0.9257   -0.6211 C   0  0  0  0  0  0  0  0  0  0  0  0
   -1.4510   -2.5850   -1.8002 H   0  0  0  0  0  0  0  0  0  0  0  0
    0.7759   -1.5561   -2.2831 H   0  0  0  0  0  0  0  0  0  0  0  0
   -0.3532    1.9029    0.0268 H   0  0  0  0  0  0  0  0  0  0  0  0
   -2.5444    0.8915    0.4909 H   0  0  0  0  0  0  0  0  0  0  0  0
    1.6035    0.7965   -1.4301 N   0  0  0  0  0  0  0  0  0  0  0  0
    2.6246    1.0006   -0.8948 N   0  0  0  0  0  0  0  0  0  0  0  0
    2.7757    0.2852    1.0817 Cl  0  0  0  0  0  0  0  0  0  0  0  0
   -3.3117   -1.5704   -0.4291 O   0  0  0  0  0  0  0  0  0  0  0  0
   -4.3084   -0.9472    0.3729 C   0  0  0  0  0  0  0  0  0  0  0  0
   -5.1487   -1.6418    0.3970 H   0  0  0  0  0  0  0  0  0  0  0  0
   -4.6377    0.0040   -0.0625 H   0  0  0  0  0  0  0  0  0  0  0  0
   -3.9503   -0.7751    1.3950 H   0  0  0  0  0  0  0  0  0  0  0  0
  1  6  1  0  0  0  0
  2  1  2  0  0  0  0
  2  3  1  0  0  0  0
  3  4  2  0  0  0  0
  4  5  1  0  0  0  0
  4  9  1  0  0  0  0
  5 10  1  0  0  0  0
  6 14  1  0  0  0  0
  6  5  2  0  0  0  0
  7  1  1  0  0  0  0
  8  2  1  0  0  0  0
 11  3  1  0  0  0  0
 11 12  2  0  0  0  0
 12 13  1  0  0  0  0
 14 15  1  0  0  0  0
 15 16  1  0  0  0  0
 15 18  1  0  0  0  0
 17 15  1  0  0  0  0
M  END
