Coordinates from ORCA-job p-CH3O-Ph-N2-X-Cl-B3LYPG-6-31G_dp-scan-d09-49-n400
 OpenBabel08281821013D

 18 17  0  0  0  0  0  0  0  0999 V2000
   -1.3458   -1.6051   -1.6419 C   0  0  0  0  0  0  0  0  0  0  0  0
   -0.0301   -1.2224   -1.8098 C   0  0  0  0  0  0  0  0  0  0  0  0
    0.4788   -0.1777   -1.0191 C   0  0  0  0  0  0  0  0  0  0  0  0
   -0.3090    0.4859   -0.0680 C   0  0  0  0  0  0  0  0  0  0  0  0
   -1.6321    0.0949    0.0928 C   0  0  0  0  0  0  0  0  0  0  0  0
   -2.1563   -0.9496   -0.6902 C   0  0  0  0  0  0  0  0  0  0  0  0
   -1.7830   -2.4061   -2.2273 H   0  0  0  0  0  0  0  0  0  0  0  0
    0.6104   -1.7119   -2.5357 H   0  0  0  0  0  0  0  0  0  0  0  0
    0.1799    1.2869    0.5008 H   0  0  0  0  0  0  0  0  0  0  0  0
   -2.2472    0.6036    0.8251 H   0  0  0  0  0  0  0  0  0  0  0  0
    1.8129    0.1968   -1.2027 N   0  0  0  0  0  0  0  0  0  0  0  0
    2.6192    0.9424   -0.8102 N   0  0  0  0  0  0  0  0  0  0  0  0
    1.9671    2.3157    0.7942 Cl  0  0  0  0  0  0  0  0  0  0  0  0
   -3.4254   -1.4020   -0.6086 O   0  0  0  0  0  0  0  0  0  0  0  0
   -4.3178   -0.7946    0.3232 C   0  0  0  0  0  0  0  0  0  0  0  0
   -5.2652   -1.3216    0.2120 H   0  0  0  0  0  0  0  0  0  0  0  0
   -4.4634    0.2686    0.0995 H   0  0  0  0  0  0  0  0  0  0  0  0
   -3.9564   -0.9068    1.3520 H   0  0  0  0  0  0  0  0  0  0  0  0
  1  6  1  0  0  0  0
  2  1  2  0  0  0  0
  2  3  1  0  0  0  0
  3  4  2  0  0  0  0
  4  5  1  0  0  0  0
  4  9  1  0  0  0  0
  5 10  1  0  0  0  0
  6 14  1  0  0  0  0
  6  5  2  0  0  0  0
  7  1  1  0  0  0  0
  8  2  1  0  0  0  0
 11  3  1  0  0  0  0
 11 12  2  0  0  0  0
 14 15  1  0  0  0  0
 15 18  1  0  0  0  0
 16 15  1  0  0  0  0
 17 15  1  0  0  0  0
M  RAD  2  12   2  13   2
M  END
