Coordinates from ORCA-job p-CH3O-Ph-N2-X-Cl-B3LYPG-6-31G_dp-scan-d09-49-n400
 OpenBabel08281821013D

 18 18  0  0  0  0  0  0  0  0999 V2000
   -1.2404   -1.6224   -1.4740 C   0  0  0  0  0  0  0  0  0  0  0  0
    0.0080   -1.0841   -1.7292 C   0  0  0  0  0  0  0  0  0  0  0  0
    0.3791    0.1193   -1.1106 C   0  0  0  0  0  0  0  0  0  0  0  0
   -0.5207    0.8243   -0.3061 C   0  0  0  0  0  0  0  0  0  0  0  0
   -1.7869    0.2911   -0.0765 C   0  0  0  0  0  0  0  0  0  0  0  0
   -2.1484   -0.9406   -0.6432 C   0  0  0  0  0  0  0  0  0  0  0  0
   -1.5447   -2.5664   -1.9110 H   0  0  0  0  0  0  0  0  0  0  0  0
    0.7116   -1.5938   -2.3785 H   0  0  0  0  0  0  0  0  0  0  0  0
   -0.2643    1.7901    0.1113 H   0  0  0  0  0  0  0  0  0  0  0  0
   -2.4802    0.8439    0.5453 H   0  0  0  0  0  0  0  0  0  0  0  0
    1.6509    0.6440   -1.4238 N   0  0  0  0  0  0  0  0  0  0  0  0
    2.6322    1.0081   -0.9016 N   0  0  0  0  0  0  0  0  0  0  0  0
    2.7222    0.7956    1.2161 Cl  0  0  0  0  0  0  0  0  0  0  0  0
   -3.3463   -1.5462   -0.4668 O   0  0  0  0  0  0  0  0  0  0  0  0
   -4.3121   -0.9237    0.3744 C   0  0  0  0  0  0  0  0  0  0  0  0
   -5.1766   -1.5880    0.3767 H   0  0  0  0  0  0  0  0  0  0  0  0
   -4.6100    0.0572   -0.0149 H   0  0  0  0  0  0  0  0  0  0  0  0
   -3.9367   -0.8113    1.3985 H   0  0  0  0  0  0  0  0  0  0  0  0
  1  6  1  0  0  0  0
  2  1  2  0  0  0  0
  2  3  1  0  0  0  0
  3  4  2  0  0  0  0
  4  5  1  0  0  0  0
  4  9  1  0  0  0  0
  5 10  1  0  0  0  0
  6 14  1  0  0  0  0
  6  5  2  0  0  0  0
  7  1  1  0  0  0  0
  8  2  1  0  0  0  0
 11  3  1  0  0  0  0
 11 12  2  0  0  0  0
 12 13  1  0  0  0  0
 14 15  1  0  0  0  0
 15 16  1  0  0  0  0
 15 18  1  0  0  0  0
 17 15  1  0  0  0  0
M  END
