Coordinates from ORCA-job p-CH3O-Ph-N2-X-Cl-B3LYPG-6-31G_dp-scan-d09-49-n400
 OpenBabel08281821013D

 18 17  0  0  0  0  0  0  0  0999 V2000
   -1.3462   -1.5960   -1.6342 C   0  0  0  0  0  0  0  0  0  0  0  0
   -0.0328   -1.1995   -1.7869 C   0  0  0  0  0  0  0  0  0  0  0  0
    0.4721   -0.1534   -0.9927 C   0  0  0  0  0  0  0  0  0  0  0  0
   -0.3363    0.4967   -0.0473 C   0  0  0  0  0  0  0  0  0  0  0  0
   -1.6576    0.0932    0.1003 C   0  0  0  0  0  0  0  0  0  0  0  0
   -2.1700   -0.9522   -0.6884 C   0  0  0  0  0  0  0  0  0  0  0  0
   -1.7691   -2.3988   -2.2276 H   0  0  0  0  0  0  0  0  0  0  0  0
    0.6177   -1.6813   -2.5088 H   0  0  0  0  0  0  0  0  0  0  0  0
    0.0935    1.2986    0.5444 H   0  0  0  0  0  0  0  0  0  0  0  0
   -2.2806    0.5960    0.8297 H   0  0  0  0  0  0  0  0  0  0  0  0
    1.8088    0.1973   -1.1971 N   0  0  0  0  0  0  0  0  0  0  0  0
    2.6652    0.9127   -0.8524 N   0  0  0  0  0  0  0  0  0  0  0  0
    2.2040    2.3472    0.7257 Cl  0  0  0  0  0  0  0  0  0  0  0  0
   -3.4362   -1.4135   -0.6166 O   0  0  0  0  0  0  0  0  0  0  0  0
   -4.3391   -0.8164    0.3118 C   0  0  0  0  0  0  0  0  0  0  0  0
   -5.2819   -1.3498    0.1921 H   0  0  0  0  0  0  0  0  0  0  0  0
   -4.4912    0.2466    0.0914 H   0  0  0  0  0  0  0  0  0  0  0  0
   -3.9838   -0.9305    1.3425 H   0  0  0  0  0  0  0  0  0  0  0  0
  1  6  1  0  0  0  0
  2  1  2  0  0  0  0
  2  3  1  0  0  0  0
  3  4  2  0  0  0  0
  4  5  1  0  0  0  0
  4  9  1  0  0  0  0
  5 10  1  0  0  0  0
  6 14  1  0  0  0  0
  6  5  2  0  0  0  0
  7  1  1  0  0  0  0
  8  2  1  0  0  0  0
 11  3  1  0  0  0  0
 11 12  2  0  0  0  0
 14 15  1  0  0  0  0
 15 18  1  0  0  0  0
 16 15  1  0  0  0  0
 17 15  1  0  0  0  0
M  RAD  2  12   2  13   2
M  END
