Coordinates from ORCA-job p-CH3O-Ph-N2-X-Cl-B3LYPG-6-31G_dp-scan-d09-49-n400
 OpenBabel08281821013D

 18 18  0  0  0  0  0  0  0  0999 V2000
   -1.2898   -1.6260   -1.5385 C   0  0  0  0  0  0  0  0  0  0  0  0
   -0.0209   -1.1288   -1.7648 C   0  0  0  0  0  0  0  0  0  0  0  0
    0.4097    0.0219   -1.0812 C   0  0  0  0  0  0  0  0  0  0  0  0
   -0.4570    0.7139   -0.2249 C   0  0  0  0  0  0  0  0  0  0  0  0
   -1.7444    0.2253   -0.0243 C   0  0  0  0  0  0  0  0  0  0  0  0
   -2.1636   -0.9532   -0.6632 C   0  0  0  0  0  0  0  0  0  0  0  0
   -1.6392   -2.5264   -2.0307 H   0  0  0  0  0  0  0  0  0  0  0  0
    0.6590   -1.6263   -2.4481 H   0  0  0  0  0  0  0  0  0  0  0  0
   -0.1539    1.6332    0.2562 H   0  0  0  0  0  0  0  0  0  0  0  0
   -2.4116    0.7701    0.6321 H   0  0  0  0  0  0  0  0  0  0  0  0
    1.7053    0.4712   -1.3753 N   0  0  0  0  0  0  0  0  0  0  0  0
    2.6547    0.9778   -0.9189 N   0  0  0  0  0  0  0  0  0  0  0  0
    2.6407    1.4084    1.1902 Cl  0  0  0  0  0  0  0  0  0  0  0  0
   -3.3856   -1.5114   -0.5173 O   0  0  0  0  0  0  0  0  0  0  0  0
   -4.3252   -0.8946    0.3590 C   0  0  0  0  0  0  0  0  0  0  0  0
   -5.2174   -1.5199    0.3246 H   0  0  0  0  0  0  0  0  0  0  0  0
   -4.5785    0.1182    0.0243 H   0  0  0  0  0  0  0  0  0  0  0  0
   -3.9459   -0.8563    1.3869 H   0  0  0  0  0  0  0  0  0  0  0  0
  1  6  1  0  0  0  0
  2  1  2  0  0  0  0
  2  3  1  0  0  0  0
  3  4  2  0  0  0  0
  4  5  1  0  0  0  0
  4  9  1  0  0  0  0
  5 10  1  0  0  0  0
  6 14  1  0  0  0  0
  6  5  2  0  0  0  0
  7  1  1  0  0  0  0
  8  2  1  0  0  0  0
 11  3  1  0  0  0  0
 11 12  2  0  0  0  0
 12 13  1  0  0  0  0
 14 15  1  0  0  0  0
 15 18  1  0  0  0  0
 16 15  1  0  0  0  0
 17 15  1  0  0  0  0
M  END
