Coordinates from ORCA-job p-CH3O-Ph-N2-X-Cl-B3LYPG-6-31G_dp-scan-d09-49-n400
 OpenBabel08281821013D

 18 18  0  0  0  0  0  0  0  0999 V2000
   -1.3464   -1.5923   -1.6309 C   0  0  0  0  0  0  0  0  0  0  0  0
   -0.0342   -1.1896   -1.7769 C   0  0  0  0  0  0  0  0  0  0  0  0
    0.4681   -0.1428   -0.9809 C   0  0  0  0  0  0  0  0  0  0  0  0
   -0.3487    0.5017   -0.0380 C   0  0  0  0  0  0  0  0  0  0  0  0
   -1.6691    0.0922    0.1035 C   0  0  0  0  0  0  0  0  0  0  0  0
   -2.1762   -0.9536   -0.6877 C   0  0  0  0  0  0  0  0  0  0  0  0
   -1.7629   -2.3959   -2.2277 H   0  0  0  0  0  0  0  0  0  0  0  0
    0.6207   -1.6680   -2.4971 H   0  0  0  0  0  0  0  0  0  0  0  0
    0.0570    1.3050    0.5637 H   0  0  0  0  0  0  0  0  0  0  0  0
   -2.2960    0.5922    0.8315 H   0  0  0  0  0  0  0  0  0  0  0  0
    1.8055    0.1996   -1.1925 N   0  0  0  0  0  0  0  0  0  0  0  0
    2.6847    0.8986   -0.8722 N   0  0  0  0  0  0  0  0  0  0  0  0
    2.3121    2.3619    0.6961 Cl  0  0  0  0  0  0  0  0  0  0  0  0
   -3.4409   -1.4188   -0.6203 O   0  0  0  0  0  0  0  0  0  0  0  0
   -4.3485   -0.8262    0.3066 C   0  0  0  0  0  0  0  0  0  0  0  0
   -5.2892   -1.3624    0.1832 H   0  0  0  0  0  0  0  0  0  0  0  0
   -4.5034    0.2366    0.0876 H   0  0  0  0  0  0  0  0  0  0  0  0
   -3.9959   -0.9411    1.3381 H   0  0  0  0  0  0  0  0  0  0  0  0
  1  6  1  0  0  0  0
  2  1  2  0  0  0  0
  2  3  1  0  0  0  0
  3  4  2  0  0  0  0
  4  5  1  0  0  0  0
  4  9  1  0  0  0  0
  5 10  1  0  0  0  0
  6 14  1  0  0  0  0
  6  5  2  0  0  0  0
  7  1  1  0  0  0  0
  8  2  1  0  0  0  0
 11  3  1  0  0  0  0
 11 12  2  0  0  0  0
 12 13  1  0  0  0  0
 14 15  1  0  0  0  0
 15 18  1  0  0  0  0
 16 15  1  0  0  0  0
 17 15  1  0  0  0  0
M  END
