Coordinates from ORCA-job p-CH3O-Ph-N2-X-Cl-B3LYPG-6-31G_dp-scan-d09-49-n400
 OpenBabel08281821013D

 18 17  0  0  0  0  0  0  0  0999 V2000
   -1.3544   -1.6482   -1.6846 C   0  0  0  0  0  0  0  0  0  0  0  0
   -0.0453   -1.3019   -1.8806 C   0  0  0  0  0  0  0  0  0  0  0  0
    0.4552   -0.2431   -1.0684 C   0  0  0  0  0  0  0  0  0  0  0  0
   -0.2381    0.4959   -0.0828 C   0  0  0  0  0  0  0  0  0  0  0  0
   -1.5716    0.0824    0.0574 C   0  0  0  0  0  0  0  0  0  0  0  0
   -2.1285   -0.9535   -0.7081 C   0  0  0  0  0  0  0  0  0  0  0  0
   -1.8283   -2.4410   -2.2519 H   0  0  0  0  0  0  0  0  0  0  0  0
    0.5757   -1.8073   -2.6146 H   0  0  0  0  0  0  0  0  0  0  0  0
    0.5226    1.7347    0.7982 H   0  0  0  0  0  0  0  0  0  0  0  0
   -2.1939    0.5888    0.7908 H   0  0  0  0  0  0  0  0  0  0  0  0
    1.7630    0.1188   -1.2466 N   0  0  0  0  0  0  0  0  0  0  0  0
    2.8297    0.4468   -1.3601 N   0  0  0  0  0  0  0  0  0  0  0  0
    1.1676    2.6792    1.4390 Cl  0  0  0  0  0  0  0  0  0  0  0  0
   -3.3985   -1.3910   -0.6139 O   0  0  0  0  0  0  0  0  0  0  0  0
   -4.2767   -0.7734    0.3288 C   0  0  0  0  0  0  0  0  0  0  0  0
   -5.2294   -1.2929    0.2273 H   0  0  0  0  0  0  0  0  0  0  0  0
   -4.4111    0.2903    0.1048 H   0  0  0  0  0  0  0  0  0  0  0  0
   -3.9014   -0.8876    1.3515 H   0  0  0  0  0  0  0  0  0  0  0  0
  1  6  1  0  0  0  0
  2  1  2  0  0  0  0
  2  3  1  0  0  0  0
  3  4  2  0  0  0  0
  4  5  1  0  0  0  0
  5 10  1  0  0  0  0
  6 14  1  0  0  0  0
  6  5  2  0  0  0  0
  7  1  1  0  0  0  0
  8  2  1  0  0  0  0
  9 13  1  0  0  0  0
 11  3  1  0  0  0  0
 12 11  1  0  0  0  0
 14 15  1  0  0  0  0
 15 18  1  0  0  0  0
 16 15  1  0  0  0  0
 17 15  1  0  0  0  0
M  RAD  3   4   2  11   2  12   3
M  END
