Coordinates from ORCA-job p-CH3O-Ph-N2-X-Cl-B3LYPG-6-31G_dp-scan-d09-49-n400
 OpenBabel08281821013D

 18 18  0  0  0  0  0  0  0  0999 V2000
   -1.0400   -1.5673   -1.1000 C   0  0  0  0  0  0  0  0  0  0  0  0
    0.1776   -0.9396   -1.2934 C   0  0  0  0  0  0  0  0  0  0  0  0
    0.3098    0.4030   -0.8994 C   0  0  0  0  0  0  0  0  0  0  0  0
   -0.7586    1.0990   -0.3360 C   0  0  0  0  0  0  0  0  0  0  0  0
   -1.9704    0.4563   -0.1093 C   0  0  0  0  0  0  0  0  0  0  0  0
   -2.1167   -0.8843   -0.5011 C   0  0  0  0  0  0  0  0  0  0  0  0
   -1.1873   -2.5997   -1.3965 H   0  0  0  0  0  0  0  0  0  0  0  0
    1.0147   -1.4637   -1.7345 H   0  0  0  0  0  0  0  0  0  0  0  0
   -0.5952    2.1292   -0.0481 H   0  0  0  0  0  0  0  0  0  0  0  0
   -2.7844    0.9981    0.3554 H   0  0  0  0  0  0  0  0  0  0  0  0
    1.4906    1.1395   -1.1042 N   0  0  0  0  0  0  0  0  0  0  0  0
    2.6515    0.9713   -1.0306 N   0  0  0  0  0  0  0  0  0  0  0  0
    3.2459   -0.9016   -0.3133 Cl  0  0  0  0  0  0  0  0  0  0  0  0
   -3.2510   -1.6069   -0.3515 O   0  0  0  0  0  0  0  0  0  0  0  0
   -4.3852   -0.9887    0.2483 C   0  0  0  0  0  0  0  0  0  0  0  0
   -5.1634   -1.7524    0.2696 H   0  0  0  0  0  0  0  0  0  0  0  0
   -4.7328   -0.1321   -0.3417 H   0  0  0  0  0  0  0  0  0  0  0  0
   -4.1683   -0.6629    1.2723 H   0  0  0  0  0  0  0  0  0  0  0  0
  1  6  1  0  0  0  0
  2  1  2  0  0  0  0
  2  3  1  0  0  0  0
  3  4  2  0  0  0  0
  4  5  1  0  0  0  0
  4  9  1  0  0  0  0
  5 10  1  0  0  0  0
  6 14  1  0  0  0  0
  6  5  2  0  0  0  0
  7  1  1  0  0  0  0
  8  2  1  0  0  0  0
 11 12  2  0  0  0  0
 11  3  1  0  0  0  0
 12 13  1  0  0  0  0
 14 15  1  0  0  0  0
 15 16  1  0  0  0  0
 15 18  1  0  0  0  0
 17 15  1  0  0  0  0
M  END
