Coordinates from ORCA-job p-CH3O-Ph-N2-X-Cl-B3LYPG-6-31G_dp-scan-d09-49-n400
 OpenBabel08281821013D

 18 18  0  0  0  0  0  0  0  0999 V2000
   -1.1504   -1.5944   -1.3536 C   0  0  0  0  0  0  0  0  0  0  0  0
    0.0744   -1.0031   -1.6178 C   0  0  0  0  0  0  0  0  0  0  0  0
    0.3328    0.2735   -1.1063 C   0  0  0  0  0  0  0  0  0  0  0  0
   -0.6261    0.9763   -0.3815 C   0  0  0  0  0  0  0  0  0  0  0  0
   -1.8570    0.3763   -0.1194 C   0  0  0  0  0  0  0  0  0  0  0  0
   -2.1239   -0.9127   -0.6024 C   0  0  0  0  0  0  0  0  0  0  0  0
   -1.3791   -2.5901   -1.7161 H   0  0  0  0  0  0  0  0  0  0  0  0
    0.8316   -1.5237   -2.1934 H   0  0  0  0  0  0  0  0  0  0  0  0
   -0.4114    1.9732   -0.0138 H   0  0  0  0  0  0  0  0  0  0  0  0
   -2.5928    0.9201    0.4600 H   0  0  0  0  0  0  0  0  0  0  0  0
    1.5718    0.9015   -1.4124 N   0  0  0  0  0  0  0  0  0  0  0  0
    2.6252    0.9721   -0.9015 N   0  0  0  0  0  0  0  0  0  0  0  0
    2.7971   -0.0590    0.9053 Cl  0  0  0  0  0  0  0  0  0  0  0  0
   -3.2865   -1.5841   -0.4056 O   0  0  0  0  0  0  0  0  0  0  0  0
   -4.3094   -0.9637    0.3642 C   0  0  0  0  0  0  0  0  0  0  0  0
   -5.1322   -1.6788    0.3984 H   0  0  0  0  0  0  0  0  0  0  0  0
   -4.6570   -0.0344   -0.1035 H   0  0  0  0  0  0  0  0  0  0  0  0
   -3.9705   -0.7521    1.3855 H   0  0  0  0  0  0  0  0  0  0  0  0
  1  6  1  0  0  0  0
  2  1  2  0  0  0  0
  2  3  1  0  0  0  0
  3  4  2  0  0  0  0
  4  5  1  0  0  0  0
  4  9  1  0  0  0  0
  5 10  1  0  0  0  0
  6 14  1  0  0  0  0
  6  5  2  0  0  0  0
  7  1  1  0  0  0  0
  8  2  1  0  0  0  0
 11  3  1  0  0  0  0
 11 12  1  0  0  0  0
 12 13  1  0  0  0  0
 14 15  1  0  0  0  0
 15 16  1  0  0  0  0
 15 18  1  0  0  0  0
 17 15  1  0  0  0  0
M  RAD  2  11   2  12   2
M  END
