Coordinates from ORCA-job p-CH3O-Ph-N2-X-Cl-B3LYPG-6-31G_dp-scan-d09-49-n400
 OpenBabel08281821013D

 18 17  0  0  0  0  0  0  0  0999 V2000
   -1.3430   -1.6282   -1.6690 C   0  0  0  0  0  0  0  0  0  0  0  0
   -0.0340   -1.2743   -1.8583 C   0  0  0  0  0  0  0  0  0  0  0  0
    0.4603   -0.2154   -1.0461 C   0  0  0  0  0  0  0  0  0  0  0  0
   -0.2543    0.5093   -0.0679 C   0  0  0  0  0  0  0  0  0  0  0  0
   -1.5830    0.0981    0.0730 C   0  0  0  0  0  0  0  0  0  0  0  0
   -2.1288   -0.9415   -0.6974 C   0  0  0  0  0  0  0  0  0  0  0  0
   -1.8077   -2.4236   -2.2403 H   0  0  0  0  0  0  0  0  0  0  0  0
    0.5929   -1.7760   -2.5895 H   0  0  0  0  0  0  0  0  0  0  0  0
    0.4505    1.5812    0.6788 H   0  0  0  0  0  0  0  0  0  0  0  0
   -2.2050    0.6049    0.8055 H   0  0  0  0  0  0  0  0  0  0  0  0
    1.7668    0.1580   -1.2122 N   0  0  0  0  0  0  0  0  0  0  0  0
    2.8297    0.4985   -1.3120 N   0  0  0  0  0  0  0  0  0  0  0  0
    1.2336    2.5673    1.3161 Cl  0  0  0  0  0  0  0  0  0  0  0  0
   -3.3948   -1.3856   -0.6094 O   0  0  0  0  0  0  0  0  0  0  0  0
   -4.2824   -0.7746    0.3306 C   0  0  0  0  0  0  0  0  0  0  0  0
   -5.2306   -1.3007    0.2233 H   0  0  0  0  0  0  0  0  0  0  0  0
   -4.4226    0.2881    0.1063 H   0  0  0  0  0  0  0  0  0  0  0  0
   -3.9108   -0.8884    1.3545 H   0  0  0  0  0  0  0  0  0  0  0  0
  1  6  1  0  0  0  0
  2  1  2  0  0  0  0
  2  3  1  0  0  0  0
  3  4  2  0  0  0  0
  4  5  1  0  0  0  0
  5 10  1  0  0  0  0
  6 14  1  0  0  0  0
  6  5  2  0  0  0  0
  7  1  1  0  0  0  0
  8  2  1  0  0  0  0
  9 13  1  0  0  0  0
 11  3  1  0  0  0  0
 12 11  1  0  0  0  0
 14 15  1  0  0  0  0
 15 18  1  0  0  0  0
 16 15  1  0  0  0  0
 17 15  1  0  0  0  0
M  RAD  3   4   2  11   2  12   3
M  END
