Coordinates from ORCA-job p-CH3O-Ph-N2-X-Cl-B3LYPG-6-31G_dp-scan-d09-49-n400
 OpenBabel08281821013D

 18 18  0  0  0  0  0  0  0  0999 V2000
   -1.3456   -1.5891   -1.6232 C   0  0  0  0  0  0  0  0  0  0  0  0
   -0.0369   -1.1738   -1.7624 C   0  0  0  0  0  0  0  0  0  0  0  0
    0.4587   -0.1214   -0.9673 C   0  0  0  0  0  0  0  0  0  0  0  0
   -0.3719    0.5171   -0.0313 C   0  0  0  0  0  0  0  0  0  0  0  0
   -1.6896    0.0958    0.1031 C   0  0  0  0  0  0  0  0  0  0  0  0
   -2.1857   -0.9564   -0.6861 C   0  0  0  0  0  0  0  0  0  0  0  0
   -1.7503   -2.3979   -2.2212 H   0  0  0  0  0  0  0  0  0  0  0  0
    0.6253   -1.6479   -2.4788 H   0  0  0  0  0  0  0  0  0  0  0  0
   -0.0028    1.3276    0.5804 H   0  0  0  0  0  0  0  0  0  0  0  0
   -2.3235    0.5938    0.8263 H   0  0  0  0  0  0  0  0  0  0  0  0
    1.7949    0.2148   -1.1901 N   0  0  0  0  0  0  0  0  0  0  0  0
    2.7122    0.8781   -0.9073 N   0  0  0  0  0  0  0  0  0  0  0  0
    2.4963    2.3567    0.6788 Cl  0  0  0  0  0  0  0  0  0  0  0  0
   -3.4467   -1.4312   -0.6222 O   0  0  0  0  0  0  0  0  0  0  0  0
   -4.3623   -0.8440    0.3005 C   0  0  0  0  0  0  0  0  0  0  0  0
   -5.2981   -1.3884    0.1752 H   0  0  0  0  0  0  0  0  0  0  0  0
   -4.5254    0.2170    0.0783 H   0  0  0  0  0  0  0  0  0  0  0  0
   -4.0120   -0.9537    1.3333 H   0  0  0  0  0  0  0  0  0  0  0  0
  1  6  1  0  0  0  0
  2  1  2  0  0  0  0
  2  3  1  0  0  0  0
  3  4  2  0  0  0  0
  4  5  1  0  0  0  0
  4  9  1  0  0  0  0
  5 10  1  0  0  0  0
  6 14  1  0  0  0  0
  6  5  2  0  0  0  0
  7  1  1  0  0  0  0
  8  2  1  0  0  0  0
 11  3  1  0  0  0  0
 11 12  2  0  0  0  0
 12 13  1  0  0  0  0
 14 15  1  0  0  0  0
 15 18  1  0  0  0  0
 16 15  1  0  0  0  0
 17 15  1  0  0  0  0
M  END
