Coordinates from ORCA-job p-CH3O-Ph-N2-X-Cl-B3LYPG-6-31G_dp-scan-d09-49-n400
 OpenBabel08281821013D

 18 18  0  0  0  0  0  0  0  0999 V2000
   -1.3463   -1.5888   -1.6261 C   0  0  0  0  0  0  0  0  0  0  0  0
   -0.0361   -1.1778   -1.7654 C   0  0  0  0  0  0  0  0  0  0  0  0
    0.4618   -0.1285   -0.9683 C   0  0  0  0  0  0  0  0  0  0  0  0
   -0.3652    0.5103   -0.0295 C   0  0  0  0  0  0  0  0  0  0  0  0
   -1.6840    0.0928    0.1055 C   0  0  0  0  0  0  0  0  0  0  0  0
   -2.1836   -0.9556   -0.6867 C   0  0  0  0  0  0  0  0  0  0  0  0
   -1.7546   -2.3947   -2.2255 H   0  0  0  0  0  0  0  0  0  0  0  0
    0.6242   -1.6526   -2.4831 H   0  0  0  0  0  0  0  0  0  0  0  0
    0.0137    1.3170    0.5818 H   0  0  0  0  0  0  0  0  0  0  0  0
   -2.3159    0.5902    0.8309 H   0  0  0  0  0  0  0  0  0  0  0  0
    1.7993    0.2072   -1.1877 N   0  0  0  0  0  0  0  0  0  0  0  0
    2.7065    0.8821   -0.8973 N   0  0  0  0  0  0  0  0  0  0  0  0
    2.4485    2.3703    0.6705 Cl  0  0  0  0  0  0  0  0  0  0  0  0
   -3.4461   -1.4268   -0.6234 O   0  0  0  0  0  0  0  0  0  0  0  0
   -4.3596   -0.8389    0.3009 C   0  0  0  0  0  0  0  0  0  0  0  0
   -5.2972   -1.3798    0.1744 H   0  0  0  0  0  0  0  0  0  0  0  0
   -4.5191    0.2232    0.0816 H   0  0  0  0  0  0  0  0  0  0  0  0
   -4.0095   -0.9525    1.3334 H   0  0  0  0  0  0  0  0  0  0  0  0
  1  6  1  0  0  0  0
  2  1  2  0  0  0  0
  2  3  1  0  0  0  0
  3  4  2  0  0  0  0
  4  5  1  0  0  0  0
  4  9  1  0  0  0  0
  5 10  1  0  0  0  0
  6 14  1  0  0  0  0
  6  5  2  0  0  0  0
  7  1  1  0  0  0  0
  8  2  1  0  0  0  0
 11  3  1  0  0  0  0
 11 12  2  0  0  0  0
 12 13  1  0  0  0  0
 14 15  1  0  0  0  0
 15 18  1  0  0  0  0
 16 15  1  0  0  0  0
 17 15  1  0  0  0  0
M  END
