Coordinates from ORCA-job p-CH3O-Ph-N2-X-Cl-B3LYPG-6-31G_dp-scan-d09-49-n400
 OpenBabel08281821013D

 18 17  0  0  0  0  0  0  0  0999 V2000
   -1.3475   -1.6169   -1.6553 C   0  0  0  0  0  0  0  0  0  0  0  0
   -0.0291   -1.2544   -1.8410 C   0  0  0  0  0  0  0  0  0  0  0  0
    0.4794   -0.2117   -1.0496 C   0  0  0  0  0  0  0  0  0  0  0  0
   -0.2732    0.4752   -0.0908 C   0  0  0  0  0  0  0  0  0  0  0  0
   -1.5997    0.0971    0.0815 C   0  0  0  0  0  0  0  0  0  0  0  0
   -2.1396   -0.9449   -0.6947 C   0  0  0  0  0  0  0  0  0  0  0  0
   -1.8043   -2.4138   -2.2311 H   0  0  0  0  0  0  0  0  0  0  0  0
    0.5993   -1.7538   -2.5710 H   0  0  0  0  0  0  0  0  0  0  0  0
    0.3152    1.2978    0.4607 H   0  0  0  0  0  0  0  0  0  0  0  0
   -2.2078    0.6117    0.8166 H   0  0  0  0  0  0  0  0  0  0  0  0
    1.8117    0.1952   -1.1967 N   0  0  0  0  0  0  0  0  0  0  0  0
    2.5702    0.9587   -0.7694 N   0  0  0  0  0  0  0  0  0  0  0  0
    1.6576    2.2911    0.8810 Cl  0  0  0  0  0  0  0  0  0  0  0  0
   -3.4121   -1.3863   -0.6021 O   0  0  0  0  0  0  0  0  0  0  0  0
   -4.2907   -0.7699    0.3370 C   0  0  0  0  0  0  0  0  0  0  0  0
   -5.2434   -1.2895    0.2359 H   0  0  0  0  0  0  0  0  0  0  0  0
   -4.4295    0.2940    0.1128 H   0  0  0  0  0  0  0  0  0  0  0  0
   -3.9200   -0.8827    1.3623 H   0  0  0  0  0  0  0  0  0  0  0  0
  1  6  1  0  0  0  0
  2  1  2  0  0  0  0
  2  3  1  0  0  0  0
  3  4  2  0  0  0  0
  4  5  1  0  0  0  0
  4  9  1  0  0  0  0
  5 10  1  0  0  0  0
  6 14  1  0  0  0  0
  6  5  2  0  0  0  0
  7  1  1  0  0  0  0
  8  2  1  0  0  0  0
 11  3  1  0  0  0  0
 11 12  2  0  0  0  0
 14 15  1  0  0  0  0
 15 18  1  0  0  0  0
 16 15  1  0  0  0  0
 17 15  1  0  0  0  0
M  RAD  2  12   2  13   2
M  END
