Coordinates from ORCA-job p-CH3O-Ph-N2-X-Cl-B3LYPG-6-31G_dp-scan-d09-49-n400
 OpenBabel08281821013D

 18 18  0  0  0  0  0  0  0  0999 V2000
   -1.3076   -1.6223   -1.5623 C   0  0  0  0  0  0  0  0  0  0  0  0
   -0.0290   -1.1440   -1.7708 C   0  0  0  0  0  0  0  0  0  0  0  0
    0.4217   -0.0165   -1.0598 C   0  0  0  0  0  0  0  0  0  0  0  0
   -0.4337    0.6658   -0.1825 C   0  0  0  0  0  0  0  0  0  0  0  0
   -1.7293    0.1950    0.0032 C   0  0  0  0  0  0  0  0  0  0  0  0
   -2.1703   -0.9564   -0.6704 C   0  0  0  0  0  0  0  0  0  0  0  0
   -1.6734   -2.5021   -2.0794 H   0  0  0  0  0  0  0  0  0  0  0  0
    0.6442   -1.6360   -2.4646 H   0  0  0  0  0  0  0  0  0  0  0  0
   -0.1099    1.5601    0.3305 H   0  0  0  0  0  0  0  0  0  0  0  0
   -2.3868    0.7320    0.6757 H   0  0  0  0  0  0  0  0  0  0  0  0
    1.7277    0.4021   -1.3405 N   0  0  0  0  0  0  0  0  0  0  0  0
    2.6685    0.9562   -0.9245 N   0  0  0  0  0  0  0  0  0  0  0  0
    2.6115    1.6645    1.1174 Cl  0  0  0  0  0  0  0  0  0  0  0  0
   -3.4022   -1.4943   -0.5417 O   0  0  0  0  0  0  0  0  0  0  0  0
   -4.3338   -0.8824    0.3473 C   0  0  0  0  0  0  0  0  0  0  0  0
   -5.2370   -1.4901    0.2940 H   0  0  0  0  0  0  0  0  0  0  0  0
   -4.5666    0.1429    0.0372 H   0  0  0  0  0  0  0  0  0  0  0  0
   -3.9574   -0.8774    1.3769 H   0  0  0  0  0  0  0  0  0  0  0  0
  1  6  1  0  0  0  0
  2  1  2  0  0  0  0
  2  3  1  0  0  0  0
  3  4  2  0  0  0  0
  4  5  1  0  0  0  0
  4  9  1  0  0  0  0
  5 10  1  0  0  0  0
  6 14  1  0  0  0  0
  6  5  2  0  0  0  0
  7  1  1  0  0  0  0
  8  2  1  0  0  0  0
 11  3  1  0  0  0  0
 11 12  2  0  0  0  0
 12 13  1  0  0  0  0
 14 15  1  0  0  0  0
 15 18  1  0  0  0  0
 16 15  1  0  0  0  0
 17 15  1  0  0  0  0
M  END
