Coordinates from ORCA-job p-CH3O-Ph-N2-X-Cl-B3LYPG-6-31G_dp-scan-d09-49-n400
 OpenBabel08281821013D

 18 18  0  0  0  0  0  0  0  0999 V2000
   -1.2988   -1.6249   -1.5506 C   0  0  0  0  0  0  0  0  0  0  0  0
   -0.0251   -1.1370   -1.7690 C   0  0  0  0  0  0  0  0  0  0  0  0
    0.4159    0.0023   -1.0719 C   0  0  0  0  0  0  0  0  0  0  0  0
   -0.4445    0.6897   -0.2047 C   0  0  0  0  0  0  0  0  0  0  0  0
   -1.7360    0.2103   -0.0109 C   0  0  0  0  0  0  0  0  0  0  0  0
   -2.1665   -0.9551   -0.6667 C   0  0  0  0  0  0  0  0  0  0  0  0
   -1.6568   -2.5152   -2.0548 H   0  0  0  0  0  0  0  0  0  0  0  0
    0.6510   -1.6318   -2.4579 H   0  0  0  0  0  0  0  0  0  0  0  0
   -0.1302    1.5966    0.2921 H   0  0  0  0  0  0  0  0  0  0  0  0
   -2.3980    0.7515    0.6536 H   0  0  0  0  0  0  0  0  0  0  0  0
    1.7165    0.4369   -1.3599 N   0  0  0  0  0  0  0  0  0  0  0  0
    2.6602    0.9688   -0.9214 N   0  0  0  0  0  0  0  0  0  0  0  0
    2.6206    1.5355    1.1596 Cl  0  0  0  0  0  0  0  0  0  0  0  0
   -3.3935   -1.5031   -0.5288 O   0  0  0  0  0  0  0  0  0  0  0  0
   -4.3288   -0.8880    0.3537 C   0  0  0  0  0  0  0  0  0  0  0  0
   -5.2267   -1.5045    0.3103 H   0  0  0  0  0  0  0  0  0  0  0  0
   -4.5718    0.1310    0.0307 H   0  0  0  0  0  0  0  0  0  0  0  0
   -3.9507   -0.8658    1.3825 H   0  0  0  0  0  0  0  0  0  0  0  0
  1  6  1  0  0  0  0
  2  1  2  0  0  0  0
  2  3  1  0  0  0  0
  3  4  2  0  0  0  0
  4  5  1  0  0  0  0
  4  9  1  0  0  0  0
  5 10  1  0  0  0  0
  6 14  1  0  0  0  0
  6  5  2  0  0  0  0
  7  1  1  0  0  0  0
  8  2  1  0  0  0  0
 11  3  1  0  0  0  0
 11 12  2  0  0  0  0
 12 13  1  0  0  0  0
 14 15  1  0  0  0  0
 15 18  1  0  0  0  0
 16 15  1  0  0  0  0
 17 15  1  0  0  0  0
M  END
