Coordinates from ORCA-job p-CH3O-Ph-N2-X-Cl-B3LYPG-6-31G_dp-scan-d09-49-n400
 OpenBabel08281821013D

 18 18  0  0  0  0  0  0  0  0999 V2000
   -1.3464   -1.5895   -1.6274 C   0  0  0  0  0  0  0  0  0  0  0  0
   -0.0356   -1.1808   -1.7682 C   0  0  0  0  0  0  0  0  0  0  0  0
    0.4636   -0.1323   -0.9712 C   0  0  0  0  0  0  0  0  0  0  0  0
   -0.3609    0.5077   -0.0312 C   0  0  0  0  0  0  0  0  0  0  0  0
   -1.6802    0.0924    0.1053 C   0  0  0  0  0  0  0  0  0  0  0  0
   -2.1818   -0.9551   -0.6870 C   0  0  0  0  0  0  0  0  0  0  0  0
   -1.7568   -2.3946   -2.2265 H   0  0  0  0  0  0  0  0  0  0  0  0
    0.6233   -1.6564   -2.4866 H   0  0  0  0  0  0  0  0  0  0  0  0
    0.0244    1.3133    0.5782 H   0  0  0  0  0  0  0  0  0  0  0  0
   -2.3107    0.5903    0.8315 H   0  0  0  0  0  0  0  0  0  0  0  0
    1.8012    0.2046   -1.1886 N   0  0  0  0  0  0  0  0  0  0  0  0
    2.7013    0.8860   -0.8909 N   0  0  0  0  0  0  0  0  0  0  0  0
    2.4137    2.3699    0.6752 Cl  0  0  0  0  0  0  0  0  0  0  0  0
   -3.4449   -1.4246   -0.6229 O   0  0  0  0  0  0  0  0  0  0  0  0
   -4.3569   -0.8356    0.3022 C   0  0  0  0  0  0  0  0  0  0  0  0
   -5.2954   -1.3751    0.1763 H   0  0  0  0  0  0  0  0  0  0  0  0
   -4.5150    0.2268    0.0833 H   0  0  0  0  0  0  0  0  0  0  0  0
   -4.0062   -0.9499    1.3345 H   0  0  0  0  0  0  0  0  0  0  0  0
  1  6  1  0  0  0  0
  2  1  2  0  0  0  0
  2  3  1  0  0  0  0
  3  4  2  0  0  0  0
  4  5  1  0  0  0  0
  4  9  1  0  0  0  0
  5 10  1  0  0  0  0
  6 14  1  0  0  0  0
  6  5  2  0  0  0  0
  7  1  1  0  0  0  0
  8  2  1  0  0  0  0
 11  3  1  0  0  0  0
 11 12  2  0  0  0  0
 12 13  1  0  0  0  0
 14 15  1  0  0  0  0
 15 18  1  0  0  0  0
 16 15  1  0  0  0  0
 17 15  1  0  0  0  0
M  END
