Coordinates from ORCA-job p-CH3O-Ph-N2-X-Cl-B3LYPG-6-31G_dp-scan-d09-49-n400
 OpenBabel08281821013D

 18 17  0  0  0  0  0  0  0  0999 V2000
   -1.3346   -1.6120   -1.6561 C   0  0  0  0  0  0  0  0  0  0  0  0
   -0.0254   -1.2511   -1.8392 C   0  0  0  0  0  0  0  0  0  0  0  0
    0.4662   -0.1933   -1.0283 C   0  0  0  0  0  0  0  0  0  0  0  0
   -0.2711    0.5163   -0.0565 C   0  0  0  0  0  0  0  0  0  0  0  0
   -1.5954    0.1082    0.0865 C   0  0  0  0  0  0  0  0  0  0  0  0
   -2.1311   -0.9338   -0.6891 C   0  0  0  0  0  0  0  0  0  0  0  0
   -1.7904   -2.4094   -2.2317 H   0  0  0  0  0  0  0  0  0  0  0  0
    0.6061   -1.7494   -2.5682 H   0  0  0  0  0  0  0  0  0  0  0  0
    0.3740    1.4582    0.5901 H   0  0  0  0  0  0  0  0  0  0  0  0
   -2.2154    0.6159    0.8187 H   0  0  0  0  0  0  0  0  0  0  0  0
    1.7701    0.1911   -1.1832 N   0  0  0  0  0  0  0  0  0  0  0  0
    2.8281    0.5466   -1.2666 N   0  0  0  0  0  0  0  0  0  0  0  0
    1.3282    2.4858    1.2060 Cl  0  0  0  0  0  0  0  0  0  0  0  0
   -3.3938   -1.3829   -0.6067 O   0  0  0  0  0  0  0  0  0  0  0  0
   -4.2894   -0.7775    0.3307 C   0  0  0  0  0  0  0  0  0  0  0  0
   -5.2341   -1.3083    0.2176 H   0  0  0  0  0  0  0  0  0  0  0  0
   -4.4336    0.2846    0.1064 H   0  0  0  0  0  0  0  0  0  0  0  0
   -3.9216   -0.8919    1.3557 H   0  0  0  0  0  0  0  0  0  0  0  0
  1  6  1  0  0  0  0
  2  1  2  0  0  0  0
  2  3  1  0  0  0  0
  3  4  2  0  0  0  0
  4  5  1  0  0  0  0
  4  9  1  0  0  0  0
  5 10  1  0  0  0  0
  6 14  1  0  0  0  0
  6  5  2  0  0  0  0
  7  1  1  0  0  0  0
  8  2  1  0  0  0  0
 11  3  1  0  0  0  0
 12 11  1  0  0  0  0
 14 15  1  0  0  0  0
 15 18  1  0  0  0  0
 16 15  1  0  0  0  0
 17 15  1  0  0  0  0
M  RAD  3  11   2  12   3  13   2
M  END
