Coordinates from ORCA-job p-CH3O-Ph-N2-X-Cl-B3LYPG-6-31G_dp-scan-d09-49-n400
 OpenBabel08281821013D

 18 18  0  0  0  0  0  0  0  0999 V2000
   -1.3465   -1.5906   -1.6290 C   0  0  0  0  0  0  0  0  0  0  0  0
   -0.0350   -1.1845   -1.7718 C   0  0  0  0  0  0  0  0  0  0  0  0
    0.4655   -0.1368   -0.9751 C   0  0  0  0  0  0  0  0  0  0  0  0
   -0.3558    0.5049   -0.0338 C   0  0  0  0  0  0  0  0  0  0  0  0
   -1.6755    0.0921    0.1047 C   0  0  0  0  0  0  0  0  0  0  0  0
   -2.1795   -0.9545   -0.6873 C   0  0  0  0  0  0  0  0  0  0  0  0
   -1.7594   -2.3950   -2.2272 H   0  0  0  0  0  0  0  0  0  0  0  0
    0.6223   -1.6612   -2.4910 H   0  0  0  0  0  0  0  0  0  0  0  0
    0.0379    1.3094    0.5726 H   0  0  0  0  0  0  0  0  0  0  0  0
   -2.3045    0.5909    0.8318 H   0  0  0  0  0  0  0  0  0  0  0  0
    1.8032    0.2021   -1.1901 N   0  0  0  0  0  0  0  0  0  0  0  0
    2.6946    0.8912   -0.8830 N   0  0  0  0  0  0  0  0  0  0  0  0
    2.3710    2.3675    0.6830 Cl  0  0  0  0  0  0  0  0  0  0  0  0
   -3.4433   -1.4221   -0.6219 O   0  0  0  0  0  0  0  0  0  0  0  0
   -4.3534   -0.8316    0.3040 C   0  0  0  0  0  0  0  0  0  0  0  0
   -5.2929   -1.3696    0.1790 H   0  0  0  0  0  0  0  0  0  0  0  0
   -4.5101    0.2310    0.0852 H   0  0  0  0  0  0  0  0  0  0  0  0
   -4.0020   -0.9463    1.3359 H   0  0  0  0  0  0  0  0  0  0  0  0
  1  6  1  0  0  0  0
  2  1  2  0  0  0  0
  2  3  1  0  0  0  0
  3  4  2  0  0  0  0
  4  5  1  0  0  0  0
  4  9  1  0  0  0  0
  5 10  1  0  0  0  0
  6 14  1  0  0  0  0
  6  5  2  0  0  0  0
  7  1  1  0  0  0  0
  8  2  1  0  0  0  0
 11  3  1  0  0  0  0
 11 12  2  0  0  0  0
 12 13  1  0  0  0  0
 14 15  1  0  0  0  0
 15 18  1  0  0  0  0
 16 15  1  0  0  0  0
 17 15  1  0  0  0  0
M  END
