Coordinates from ORCA-job p-CH3O-Ph-N2-X-Cl-B3LYPG-6-31G_dp-scan-d09-49-n400
 OpenBabel08281821013D

 18 18  0  0  0  0  0  0  0  0999 V2000
   -1.0553   -1.5643   -1.1642 C   0  0  0  0  0  0  0  0  0  0  0  0
    0.1592   -0.9367   -1.3803 C   0  0  0  0  0  0  0  0  0  0  0  0
    0.3064    0.3971   -0.9705 C   0  0  0  0  0  0  0  0  0  0  0  0
   -0.7373    1.0891   -0.3638 C   0  0  0  0  0  0  0  0  0  0  0  0
   -1.9459    0.4453   -0.1143 C   0  0  0  0  0  0  0  0  0  0  0  0
   -2.1116   -0.8861   -0.5263 C   0  0  0  0  0  0  0  0  0  0  0  0
   -1.2137   -2.5921   -1.4707 H   0  0  0  0  0  0  0  0  0  0  0  0
    0.9827   -1.4583   -1.8511 H   0  0  0  0  0  0  0  0  0  0  0  0
   -0.5590    2.1095   -0.0510 H   0  0  0  0  0  0  0  0  0  0  0  0
   -2.7418    0.9815    0.3869 H   0  0  0  0  0  0  0  0  0  0  0  0
    1.4981    1.1158   -1.2107 N   0  0  0  0  0  0  0  0  0  0  0  0
    2.6439    0.9395   -1.0104 N   0  0  0  0  0  0  0  0  0  0  0  0
    3.0854   -0.7921    0.0461 Cl  0  0  0  0  0  0  0  0  0  0  0  0
   -3.2471   -1.6058   -0.3587 O   0  0  0  0  0  0  0  0  0  0  0  0
   -4.3585   -0.9908    0.2840 C   0  0  0  0  0  0  0  0  0  0  0  0
   -5.1427   -1.7481    0.3120 H   0  0  0  0  0  0  0  0  0  0  0  0
   -4.7150   -0.1196   -0.2789 H   0  0  0  0  0  0  0  0  0  0  0  0
   -4.1113   -0.6868    1.3080 H   0  0  0  0  0  0  0  0  0  0  0  0
  1  6  1  0  0  0  0
  2  1  2  0  0  0  0
  2  3  1  0  0  0  0
  3  4  2  0  0  0  0
  4  5  1  0  0  0  0
  4  9  1  0  0  0  0
  5 10  1  0  0  0  0
  6 14  1  0  0  0  0
  6  5  2  0  0  0  0
  7  1  1  0  0  0  0
  8  2  1  0  0  0  0
 11 12  1  0  0  0  0
 11  3  1  0  0  0  0
 12 13  1  0  0  0  0
 14 15  1  0  0  0  0
 15 16  1  0  0  0  0
 15 18  1  0  0  0  0
 17 15  1  0  0  0  0
M  RAD  2  11   2  12   2
M  END
