Coordinates from ORCA-job p-CH3O-Ph-N2-X-Cl-B3LYPG-6-31G_dp-scan-d09-49-n400
 OpenBabel08281821013D

 18 17  0  0  0  0  0  0  0  0999 V2000
   -1.3372   -1.6176   -1.6606 C   0  0  0  0  0  0  0  0  0  0  0  0
   -0.0282   -1.2594   -1.8461 C   0  0  0  0  0  0  0  0  0  0  0  0
    0.4641   -0.2010   -1.0347 C   0  0  0  0  0  0  0  0  0  0  0  0
   -0.2644    0.5145   -0.0606 C   0  0  0  0  0  0  0  0  0  0  0  0
   -1.5902    0.1052    0.0816 C   0  0  0  0  0  0  0  0  0  0  0  0
   -2.1298   -0.9361   -0.6919 C   0  0  0  0  0  0  0  0  0  0  0  0
   -1.7964   -2.4144   -2.2344 H   0  0  0  0  0  0  0  0  0  0  0  0
    0.6016   -1.7591   -2.5759 H   0  0  0  0  0  0  0  0  0  0  0  0
    0.4027    1.5007    0.6199 H   0  0  0  0  0  0  0  0  0  0  0  0
   -2.2110    0.6126    0.8139 H   0  0  0  0  0  0  0  0  0  0  0  0
    1.7693    0.1791   -1.1940 N   0  0  0  0  0  0  0  0  0  0  0  0
    2.8294    0.5279   -1.2848 N   0  0  0  0  0  0  0  0  0  0  0  0
    1.2846    2.5122    1.2476 Cl  0  0  0  0  0  0  0  0  0  0  0  0
   -3.3936   -1.3833   -0.6074 O   0  0  0  0  0  0  0  0  0  0  0  0
   -4.2862   -0.7758    0.3310 C   0  0  0  0  0  0  0  0  0  0  0  0
   -5.2322   -1.3050    0.2203 H   0  0  0  0  0  0  0  0  0  0  0  0
   -4.4290    0.2864    0.1066 H   0  0  0  0  0  0  0  0  0  0  0  0
   -3.9169   -0.8898    1.3556 H   0  0  0  0  0  0  0  0  0  0  0  0
  1  6  1  0  0  0  0
  2  1  2  0  0  0  0
  2  3  1  0  0  0  0
  3  4  2  0  0  0  0
  4  5  1  0  0  0  0
  4  9  1  0  0  0  0
  5 10  1  0  0  0  0
  6 14  1  0  0  0  0
  6  5  2  0  0  0  0
  7  1  1  0  0  0  0
  8  2  1  0  0  0  0
 11  3  1  0  0  0  0
 12 11  1  0  0  0  0
 14 15  1  0  0  0  0
 15 18  1  0  0  0  0
 16 15  1  0  0  0  0
 17 15  1  0  0  0  0
M  RAD  3  11   2  12   3  13   2
M  END
