Coordinates from ORCA-job p-CH3O-Ph-N2-X-Cl-B3LYPG-6-31G_dp-scan-d09-49-n400
 OpenBabel08281821013D

 18 18  0  0  0  0  0  0  0  0999 V2000
   -1.1011   -1.5766   -1.2749 C   0  0  0  0  0  0  0  0  0  0  0  0
    0.1150   -0.9628   -1.5261 C   0  0  0  0  0  0  0  0  0  0  0  0
    0.3139    0.3456   -1.0703 C   0  0  0  0  0  0  0  0  0  0  0  0
   -0.6799    1.0402   -0.3901 C   0  0  0  0  0  0  0  0  0  0  0  0
   -1.8950    0.4121   -0.1215 C   0  0  0  0  0  0  0  0  0  0  0  0
   -2.1127   -0.8982   -0.5713 C   0  0  0  0  0  0  0  0  0  0  0  0
   -1.2925   -2.5911   -1.6055 H   0  0  0  0  0  0  0  0  0  0  0  0
    0.9054   -1.4841   -2.0537 H   0  0  0  0  0  0  0  0  0  0  0  0
   -0.4780    2.0446   -0.0389 H   0  0  0  0  0  0  0  0  0  0  0  0
   -2.6554    0.9482    0.4325 H   0  0  0  0  0  0  0  0  0  0  0  0
    1.5329    1.0180   -1.3572 N   0  0  0  0  0  0  0  0  0  0  0  0
    2.6298    0.9351   -0.9426 N   0  0  0  0  0  0  0  0  0  0  0  0
    2.8619   -0.4376    0.5883 Cl  0  0  0  0  0  0  0  0  0  0  0  0
   -3.2597   -1.5975   -0.3798 O   0  0  0  0  0  0  0  0  0  0  0  0
   -4.3220   -0.9802    0.3373 C   0  0  0  0  0  0  0  0  0  0  0  0
   -5.1255   -1.7169    0.3730 H   0  0  0  0  0  0  0  0  0  0  0  0
   -4.6804   -0.0779   -0.1732 H   0  0  0  0  0  0  0  0  0  0  0  0
   -4.0202   -0.7237    1.3599 H   0  0  0  0  0  0  0  0  0  0  0  0
  1  6  1  0  0  0  0
  2  1  2  0  0  0  0
  2  3  1  0  0  0  0
  3  4  2  0  0  0  0
  4  5  1  0  0  0  0
  4  9  1  0  0  0  0
  5 10  1  0  0  0  0
  6 14  1  0  0  0  0
  6  5  2  0  0  0  0
  7  1  1  0  0  0  0
  8  2  1  0  0  0  0
 11  3  1  0  0  0  0
 11 12  1  0  0  0  0
 12 13  1  0  0  0  0
 14 15  1  0  0  0  0
 15 16  1  0  0  0  0
 15 18  1  0  0  0  0
 17 15  1  0  0  0  0
M  RAD  2  11   2  12   2
M  END
