Coordinates from ORCA-job p-CH3O-Ph-N2-X-Cl-B3LYPG-6-31G_dp-scan-d09-49-n400
 OpenBabel08281821013D

 18 18  0  0  0  0  0  0  0  0999 V2000
   -1.3465   -1.5915   -1.6301 C   0  0  0  0  0  0  0  0  0  0  0  0
   -0.0346   -1.1874   -1.7747 C   0  0  0  0  0  0  0  0  0  0  0  0
    0.4670   -0.1402   -0.9783 C   0  0  0  0  0  0  0  0  0  0  0  0
   -0.3517    0.5030   -0.0361 C   0  0  0  0  0  0  0  0  0  0  0  0
   -1.6718    0.0921    0.1041 C   0  0  0  0  0  0  0  0  0  0  0  0
   -2.1776   -0.9540   -0.6875 C   0  0  0  0  0  0  0  0  0  0  0  0
   -1.7614   -2.3954   -2.2276 H   0  0  0  0  0  0  0  0  0  0  0  0
    0.6214   -1.6651   -2.4945 H   0  0  0  0  0  0  0  0  0  0  0  0
    0.0488    1.3068    0.5677 H   0  0  0  0  0  0  0  0  0  0  0  0
   -2.2996    0.5916    0.8317 H   0  0  0  0  0  0  0  0  0  0  0  0
    1.8046    0.2006   -1.1915 N   0  0  0  0  0  0  0  0  0  0  0  0
    2.6890    0.8954   -0.8768 N   0  0  0  0  0  0  0  0  0  0  0  0
    2.3372    2.3646    0.6902 Cl  0  0  0  0  0  0  0  0  0  0  0  0
   -3.4420   -1.4202   -0.6210 O   0  0  0  0  0  0  0  0  0  0  0  0
   -4.3506   -0.8285    0.3054 C   0  0  0  0  0  0  0  0  0  0  0  0
   -5.2908   -1.3655    0.1813 H   0  0  0  0  0  0  0  0  0  0  0  0
   -4.5063    0.2343    0.0866 H   0  0  0  0  0  0  0  0  0  0  0  0
   -3.9985   -0.9434    1.3372 H   0  0  0  0  0  0  0  0  0  0  0  0
  1  6  1  0  0  0  0
  2  1  2  0  0  0  0
  2  3  1  0  0  0  0
  3  4  2  0  0  0  0
  4  5  1  0  0  0  0
  4  9  1  0  0  0  0
  5 10  1  0  0  0  0
  6 14  1  0  0  0  0
  6  5  2  0  0  0  0
  7  1  1  0  0  0  0
  8  2  1  0  0  0  0
 11  3  1  0  0  0  0
 11 12  2  0  0  0  0
 12 13  1  0  0  0  0
 14 15  1  0  0  0  0
 15 18  1  0  0  0  0
 16 15  1  0  0  0  0
 17 15  1  0  0  0  0
M  END
