Coordinates from ORCA-job p-CH3O-Ph-N2-X-Cl-B3LYPG-6-31G_dp-scan-d09-49-n400
 OpenBabel08281821013D

 18 17  0  0  0  0  0  0  0  0999 V2000
   -1.3460   -1.6086   -1.6456 C   0  0  0  0  0  0  0  0  0  0  0  0
   -0.0293   -1.2321   -1.8193 C   0  0  0  0  0  0  0  0  0  0  0  0
    0.4804   -0.1883   -1.0289 C   0  0  0  0  0  0  0  0  0  0  0  0
   -0.2978    0.4813   -0.0753 C   0  0  0  0  0  0  0  0  0  0  0  0
   -1.6218    0.0951    0.0902 C   0  0  0  0  0  0  0  0  0  0  0  0
   -2.1509   -0.9484   -0.6911 C   0  0  0  0  0  0  0  0  0  0  0  0
   -1.7893   -2.4082   -2.2282 H   0  0  0  0  0  0  0  0  0  0  0  0
    0.6072   -1.7246   -2.5468 H   0  0  0  0  0  0  0  0  0  0  0  0
    0.2185    1.2844    0.4845 H   0  0  0  0  0  0  0  0  0  0  0  0
   -2.2340    0.6058    0.8237 H   0  0  0  0  0  0  0  0  0  0  0  0
    1.8136    0.1966   -1.2019 N   0  0  0  0  0  0  0  0  0  0  0  0
    2.6011    0.9516   -0.7942 N   0  0  0  0  0  0  0  0  0  0  0  0
    1.8716    2.3074    0.8194 Cl  0  0  0  0  0  0  0  0  0  0  0  0
   -3.4211   -1.3971   -0.6061 O   0  0  0  0  0  0  0  0  0  0  0  0
   -4.3093   -0.7862    0.3276 C   0  0  0  0  0  0  0  0  0  0  0  0
   -5.2587   -1.3102    0.2191 H   0  0  0  0  0  0  0  0  0  0  0  0
   -4.4520    0.2773    0.1036 H   0  0  0  0  0  0  0  0  0  0  0  0
   -3.9456   -0.8987    1.3555 H   0  0  0  0  0  0  0  0  0  0  0  0
  1  6  1  0  0  0  0
  2  1  2  0  0  0  0
  2  3  1  0  0  0  0
  3  4  2  0  0  0  0
  4  5  1  0  0  0  0
  4  9  1  0  0  0  0
  5 10  1  0  0  0  0
  6 14  1  0  0  0  0
  6  5  2  0  0  0  0
  7  1  1  0  0  0  0
  8  2  1  0  0  0  0
 11  3  1  0  0  0  0
 11 12  2  0  0  0  0
 14 15  1  0  0  0  0
 15 18  1  0  0  0  0
 16 15  1  0  0  0  0
 17 15  1  0  0  0  0
M  RAD  2  12   2  13   2
M  END
