Coordinates from ORCA-job p-CH3O-Ph-N2-X-Cl-B3LYPG-6-31G_dp-scan-d09-49-n400
 OpenBabel08281821013D

 18 17  0  0  0  0  0  0  0  0999 V2000
   -1.3460   -1.5992   -1.6367 C   0  0  0  0  0  0  0  0  0  0  0  0
   -0.0318   -1.2073   -1.7948 C   0  0  0  0  0  0  0  0  0  0  0  0
    0.4749   -0.1616   -1.0023 C   0  0  0  0  0  0  0  0  0  0  0  0
   -0.3267    0.4931   -0.0550 C   0  0  0  0  0  0  0  0  0  0  0  0
   -1.6486    0.0940    0.0974 C   0  0  0  0  0  0  0  0  0  0  0  0
   -2.1652   -0.9513   -0.6890 C   0  0  0  0  0  0  0  0  0  0  0  0
   -1.7737   -2.4016   -2.2272 H   0  0  0  0  0  0  0  0  0  0  0  0
    0.6153   -1.6918   -2.5181 H   0  0  0  0  0  0  0  0  0  0  0  0
    0.1223    1.2944    0.5288 H   0  0  0  0  0  0  0  0  0  0  0  0
   -2.2687    0.5991    0.8279 H   0  0  0  0  0  0  0  0  0  0  0  0
    1.8107    0.1968   -1.2003 N   0  0  0  0  0  0  0  0  0  0  0  0
    2.6492    0.9238   -0.8373 N   0  0  0  0  0  0  0  0  0  0  0  0
    2.1203    2.3344    0.7506 Cl  0  0  0  0  0  0  0  0  0  0  0  0
   -3.4323   -1.4095   -0.6135 O   0  0  0  0  0  0  0  0  0  0  0  0
   -4.3316   -0.8086    0.3160 C   0  0  0  0  0  0  0  0  0  0  0  0
   -5.2759   -1.3400    0.1995 H   0  0  0  0  0  0  0  0  0  0  0  0
   -4.4815    0.2543    0.0941 H   0  0  0  0  0  0  0  0  0  0  0  0
   -3.9740   -0.9217    1.3460 H   0  0  0  0  0  0  0  0  0  0  0  0
  1  6  1  0  0  0  0
  2  1  2  0  0  0  0
  2  3  1  0  0  0  0
  3  4  2  0  0  0  0
  4  5  1  0  0  0  0
  4  9  1  0  0  0  0
  5 10  1  0  0  0  0
  6 14  1  0  0  0  0
  6  5  2  0  0  0  0
  7  1  1  0  0  0  0
  8  2  1  0  0  0  0
 11  3  1  0  0  0  0
 11 12  2  0  0  0  0
 14 15  1  0  0  0  0
 15 18  1  0  0  0  0
 16 15  1  0  0  0  0
 17 15  1  0  0  0  0
M  RAD  2  12   2  13   2
M  END
