Coordinates from ORCA-job p-CH3O-Ph-N2-X-Cl-B3LYPG-6-31G_dp-scan-d09-49-n400
 OpenBabel08281821013D

 18 18  0  0  0  0  0  0  0  0999 V2000
   -1.1345   -1.5881   -1.3310 C   0  0  0  0  0  0  0  0  0  0  0  0
    0.0873   -0.9891   -1.5924 C   0  0  0  0  0  0  0  0  0  0  0  0
    0.3261    0.2984   -1.0993 C   0  0  0  0  0  0  0  0  0  0  0  0
   -0.6435    0.9990   -0.3887 C   0  0  0  0  0  0  0  0  0  0  0  0
   -1.8689    0.3891   -0.1231 C   0  0  0  0  0  0  0  0  0  0  0  0
   -2.1199   -0.9074   -0.5944 C   0  0  0  0  0  0  0  0  0  0  0  0
   -1.3507   -2.5905   -1.6825 H   0  0  0  0  0  0  0  0  0  0  0  0
    0.8549   -1.5104   -2.1533 H   0  0  0  0  0  0  0  0  0  0  0  0
   -0.4334    1.9985   -0.0261 H   0  0  0  0  0  0  0  0  0  0  0  0
   -2.6123    0.9305    0.4488 H   0  0  0  0  0  0  0  0  0  0  0  0
    1.5601    0.9402   -1.3990 N   0  0  0  0  0  0  0  0  0  0  0  0
    2.6261    0.9579   -0.9084 N   0  0  0  0  0  0  0  0  0  0  0  0
    2.8053   -0.1873    0.8194 Cl  0  0  0  0  0  0  0  0  0  0  0  0
   -3.2769   -1.5885   -0.3973 O   0  0  0  0  0  0  0  0  0  0  0  0
   -4.3109   -0.9699    0.3588 C   0  0  0  0  0  0  0  0  0  0  0  0
   -5.1267   -1.6928    0.3960 H   0  0  0  0  0  0  0  0  0  0  0  0
   -4.6647   -0.0494   -0.1214 H   0  0  0  0  0  0  0  0  0  0  0  0
   -3.9808   -0.7434    1.3799 H   0  0  0  0  0  0  0  0  0  0  0  0
  1  6  1  0  0  0  0
  2  1  2  0  0  0  0
  2  3  1  0  0  0  0
  3  4  2  0  0  0  0
  4  5  1  0  0  0  0
  4  9  1  0  0  0  0
  5 10  1  0  0  0  0
  6 14  1  0  0  0  0
  6  5  2  0  0  0  0
  7  1  1  0  0  0  0
  8  2  1  0  0  0  0
 11  3  1  0  0  0  0
 11 12  1  0  0  0  0
 12 13  1  0  0  0  0
 14 15  1  0  0  0  0
 15 16  1  0  0  0  0
 15 18  1  0  0  0  0
 17 15  1  0  0  0  0
M  RAD  2  11   2  12   2
M  END
