Coordinates from ORCA-job p-CH3O-Ph-N2-X-Cl-B3LYPG-6-31G_dp-scan-d09-49-n400
 OpenBabel08281821013D

 18 18  0  0  0  0  0  0  0  0999 V2000
   -1.0846   -1.5708   -1.2426 C   0  0  0  0  0  0  0  0  0  0  0  0
    0.1298   -0.9508   -1.4846 C   0  0  0  0  0  0  0  0  0  0  0  0
    0.3094    0.3672   -1.0462 C   0  0  0  0  0  0  0  0  0  0  0  0
   -0.6993    1.0596   -0.3865 C   0  0  0  0  0  0  0  0  0  0  0  0
   -1.9105    0.4239   -0.1202 C   0  0  0  0  0  0  0  0  0  0  0  0
   -2.1106   -0.8934   -0.5583 C   0  0  0  0  0  0  0  0  0  0  0  0
   -1.2640   -2.5905   -1.5642 H   0  0  0  0  0  0  0  0  0  0  0  0
    0.9320   -1.4719   -1.9938 H   0  0  0  0  0  0  0  0  0  0  0  0
   -0.5039    2.0680   -0.0446 H   0  0  0  0  0  0  0  0  0  0  0  0
   -2.6814    0.9585    0.4206 H   0  0  0  0  0  0  0  0  0  0  0  0
    1.5202    1.0544   -1.3221 N   0  0  0  0  0  0  0  0  0  0  0  0
    2.6336    0.9273   -0.9645 N   0  0  0  0  0  0  0  0  0  0  0  0
    2.9117   -0.5627    0.4412 Cl  0  0  0  0  0  0  0  0  0  0  0  0
   -3.2529   -1.6009   -0.3724 O   0  0  0  0  0  0  0  0  0  0  0  0
   -4.3306   -0.9852    0.3232 C   0  0  0  0  0  0  0  0  0  0  0  0
   -5.1276   -1.7290    0.3570 H   0  0  0  0  0  0  0  0  0  0  0  0
   -4.6901   -0.0924   -0.2027 H   0  0  0  0  0  0  0  0  0  0  0  0
   -4.0448   -0.7140    1.3466 H   0  0  0  0  0  0  0  0  0  0  0  0
  1  6  1  0  0  0  0
  2  1  2  0  0  0  0
  2  3  1  0  0  0  0
  3  4  2  0  0  0  0
  4  5  1  0  0  0  0
  4  9  1  0  0  0  0
  5 10  1  0  0  0  0
  6 14  1  0  0  0  0
  6  5  2  0  0  0  0
  7  1  1  0  0  0  0
  8  2  1  0  0  0  0
 11  3  1  0  0  0  0
 11 12  1  0  0  0  0
 12 13  1  0  0  0  0
 14 15  1  0  0  0  0
 15 16  1  0  0  0  0
 15 18  1  0  0  0  0
 17 15  1  0  0  0  0
M  RAD  2  11   2  12   2
M  END
