Coordinates from ORCA-job p-CH3O-Ph-N2-X-Cl-B3LYPG-6-31G_dp-scan-d09-49-n400
 OpenBabel08281821013D

 18 17  0  0  0  0  0  0  0  0999 V2000
   -1.3350   -1.6130   -1.6569 C   0  0  0  0  0  0  0  0  0  0  0  0
   -0.0258   -1.2526   -1.8405 C   0  0  0  0  0  0  0  0  0  0  0  0
    0.4658   -0.1947   -1.0295 C   0  0  0  0  0  0  0  0  0  0  0  0
   -0.2698    0.5161   -0.0572 C   0  0  0  0  0  0  0  0  0  0  0  0
   -1.5943    0.1077    0.0856 C   0  0  0  0  0  0  0  0  0  0  0  0
   -2.1308   -0.9342   -0.6896 C   0  0  0  0  0  0  0  0  0  0  0  0
   -1.7915   -2.4103   -2.2322 H   0  0  0  0  0  0  0  0  0  0  0  0
    0.6053   -1.7511   -2.5696 H   0  0  0  0  0  0  0  0  0  0  0  0
    0.3793    1.4659    0.5954 H   0  0  0  0  0  0  0  0  0  0  0  0
   -2.2145    0.6154    0.8178 H   0  0  0  0  0  0  0  0  0  0  0  0
    1.7700    0.1889   -1.1853 N   0  0  0  0  0  0  0  0  0  0  0  0
    2.8285    0.5427   -1.2704 N   0  0  0  0  0  0  0  0  0  0  0  0
    1.3188    2.4905    1.2140 Cl  0  0  0  0  0  0  0  0  0  0  0  0
   -3.3937   -1.3829   -0.6068 O   0  0  0  0  0  0  0  0  0  0  0  0
   -4.2887   -0.7771    0.3308 C   0  0  0  0  0  0  0  0  0  0  0  0
   -5.2337   -1.3077    0.2182 H   0  0  0  0  0  0  0  0  0  0  0  0
   -4.4327    0.2850    0.1065 H   0  0  0  0  0  0  0  0  0  0  0  0
   -3.9207   -0.8914    1.3557 H   0  0  0  0  0  0  0  0  0  0  0  0
  1  6  1  0  0  0  0
  2  1  2  0  0  0  0
  2  3  1  0  0  0  0
  3  4  2  0  0  0  0
  4  5  1  0  0  0  0
  4  9  1  0  0  0  0
  5 10  1  0  0  0  0
  6 14  1  0  0  0  0
  6  5  2  0  0  0  0
  7  1  1  0  0  0  0
  8  2  1  0  0  0  0
 11  3  1  0  0  0  0
 12 11  1  0  0  0  0
 14 15  1  0  0  0  0
 15 18  1  0  0  0  0
 16 15  1  0  0  0  0
 17 15  1  0  0  0  0
M  RAD  3  11   2  12   3  13   2
M  END
