Coordinates from ORCA-job p-CH3O-Ph-N2-X-Cl-B3LYPG-6-31G_dp-scan-d09-49-n400
 OpenBabel08281821013D

 18 18  0  0  0  0  0  0  0  0999 V2000
   -1.0678   -1.5659   -1.2034 C   0  0  0  0  0  0  0  0  0  0  0  0
    0.1458   -0.9406   -1.4329 C   0  0  0  0  0  0  0  0  0  0  0  0
    0.3066    0.3865   -1.0111 C   0  0  0  0  0  0  0  0  0  0  0  0
   -0.7201    1.0778   -0.3776 C   0  0  0  0  0  0  0  0  0  0  0  0
   -1.9287    0.4362   -0.1179 C   0  0  0  0  0  0  0  0  0  0  0  0
   -2.1099   -0.8887   -0.5425 C   0  0  0  0  0  0  0  0  0  0  0  0
   -1.2352   -2.5904   -1.5162 H   0  0  0  0  0  0  0  0  0  0  0  0
    0.9601   -1.4615   -1.9217 H   0  0  0  0  0  0  0  0  0  0  0  0
   -0.5331    2.0919   -0.0492 H   0  0  0  0  0  0  0  0  0  0  0  0
   -2.7125    0.9705    0.4041 H   0  0  0  0  0  0  0  0  0  0  0  0
    1.5077    1.0900   -1.2705 N   0  0  0  0  0  0  0  0  0  0  0  0
    2.6387    0.9271   -0.9891 N   0  0  0  0  0  0  0  0  0  0  0  0
    2.9881   -0.6926    0.2499 Cl  0  0  0  0  0  0  0  0  0  0  0  0
   -3.2479   -1.6039   -0.3648 O   0  0  0  0  0  0  0  0  0  0  0  0
   -4.3431   -0.9894    0.3046 C   0  0  0  0  0  0  0  0  0  0  0  0
   -5.1327   -1.7411    0.3362 H   0  0  0  0  0  0  0  0  0  0  0  0
   -4.7028   -0.1081   -0.2402 H   0  0  0  0  0  0  0  0  0  0  0  0
   -4.0765   -0.7007    1.3283 H   0  0  0  0  0  0  0  0  0  0  0  0
  1  6  1  0  0  0  0
  2  1  2  0  0  0  0
  2  3  1  0  0  0  0
  3  4  2  0  0  0  0
  4  5  1  0  0  0  0
  4  9  1  0  0  0  0
  5 10  1  0  0  0  0
  6 14  1  0  0  0  0
  6  5  2  0  0  0  0
  7  1  1  0  0  0  0
  8  2  1  0  0  0  0
 11  3  1  0  0  0  0
 11 12  1  0  0  0  0
 12 13  1  0  0  0  0
 14 15  1  0  0  0  0
 15 16  1  0  0  0  0
 15 18  1  0  0  0  0
 17 15  1  0  0  0  0
M  RAD  2  11   2  12   2
M  END
