Coordinates from ORCA-job p-CH3O-Ph-N2-X-Cl-B3LYPG-6-31G_dp-scan-d09-49-n400
 OpenBabel08281821013D

 18 18  0  0  0  0  0  0  0  0999 V2000
   -1.1612   -1.5986   -1.3683 C   0  0  0  0  0  0  0  0  0  0  0  0
    0.0658   -1.0128   -1.6336 C   0  0  0  0  0  0  0  0  0  0  0  0
    0.3376    0.2562   -1.1095 C   0  0  0  0  0  0  0  0  0  0  0  0
   -0.6141    0.9602   -0.3753 C   0  0  0  0  0  0  0  0  0  0  0  0
   -1.8490    0.3671   -0.1159 C   0  0  0  0  0  0  0  0  0  0  0  0
   -2.1268   -0.9164   -0.6074 C   0  0  0  0  0  0  0  0  0  0  0  0
   -1.3985   -2.5894   -1.7386 H   0  0  0  0  0  0  0  0  0  0  0  0
    0.8160   -1.5327   -2.2190 H   0  0  0  0  0  0  0  0  0  0  0  0
   -0.3962    1.9550   -0.0039 H   0  0  0  0  0  0  0  0  0  0  0  0
   -2.5797    0.9126    0.4683 H   0  0  0  0  0  0  0  0  0  0  0  0
    1.5798    0.8743   -1.4194 N   0  0  0  0  0  0  0  0  0  0  0  0
    2.6247    0.9815   -0.8991 N   0  0  0  0  0  0  0  0  0  0  0  0
    2.7937    0.0311    0.9578 Cl  0  0  0  0  0  0  0  0  0  0  0  0
   -3.2932   -1.5808   -0.4114 O   0  0  0  0  0  0  0  0  0  0  0  0
   -4.3091   -0.9593    0.3668 C   0  0  0  0  0  0  0  0  0  0  0  0
   -5.1368   -1.6688    0.3983 H   0  0  0  0  0  0  0  0  0  0  0  0
   -4.6517   -0.0240   -0.0924 H   0  0  0  0  0  0  0  0  0  0  0  0
   -3.9650   -0.7581    1.3885 H   0  0  0  0  0  0  0  0  0  0  0  0
  1  6  1  0  0  0  0
  2  1  2  0  0  0  0
  2  3  1  0  0  0  0
  3  4  2  0  0  0  0
  4  5  1  0  0  0  0
  4  9  1  0  0  0  0
  5 10  1  0  0  0  0
  6 14  1  0  0  0  0
  6  5  2  0  0  0  0
  7  1  1  0  0  0  0
  8  2  1  0  0  0  0
 11  3  1  0  0  0  0
 11 12  2  0  0  0  0
 12 13  1  0  0  0  0
 14 15  1  0  0  0  0
 15 16  1  0  0  0  0
 15 18  1  0  0  0  0
 17 15  1  0  0  0  0
M  END
