Coordinates from ORCA-job p-CH3O-Ph-N2-X-Cl-B3LYPG-6-31G_dp-scan-d09-49-n400
 OpenBabel08281821013D

 18 18  0  0  0  0  0  0  0  0999 V2000
   -1.1227   -1.5837   -1.3128 C   0  0  0  0  0  0  0  0  0  0  0  0
    0.0969   -0.9793   -1.5713 C   0  0  0  0  0  0  0  0  0  0  0  0
    0.3215    0.3159   -1.0916 C   0  0  0  0  0  0  0  0  0  0  0  0
   -0.6564    1.0145   -0.3913 C   0  0  0  0  0  0  0  0  0  0  0  0
   -1.8779    0.3978   -0.1240 C   0  0  0  0  0  0  0  0  0  0  0  0
   -2.1171   -0.9038   -0.5873 C   0  0  0  0  0  0  0  0  0  0  0  0
   -1.3301   -2.5907   -1.6566 H   0  0  0  0  0  0  0  0  0  0  0  0
    0.8723   -1.5007   -2.1210 H   0  0  0  0  0  0  0  0  0  0  0  0
   -0.4494    2.0158   -0.0326 H   0  0  0  0  0  0  0  0  0  0  0  0
   -2.6271    0.9373    0.4421 H   0  0  0  0  0  0  0  0  0  0  0  0
    1.5510    0.9680   -1.3868 N   0  0  0  0  0  0  0  0  0  0  0  0
    2.6273    0.9482   -0.9174 N   0  0  0  0  0  0  0  0  0  0  0  0
    2.8187   -0.2777    0.7471 Cl  0  0  0  0  0  0  0  0  0  0  0  0
   -3.2704   -1.5916   -0.3912 O   0  0  0  0  0  0  0  0  0  0  0  0
   -4.3135   -0.9740    0.3530 C   0  0  0  0  0  0  0  0  0  0  0  0
   -5.1247   -1.7021    0.3907 H   0  0  0  0  0  0  0  0  0  0  0  0
   -4.6702   -0.0598   -0.1371 H   0  0  0  0  0  0  0  0  0  0  0  0
   -3.9917   -0.7369    1.3743 H   0  0  0  0  0  0  0  0  0  0  0  0
  1  6  1  0  0  0  0
  2  1  2  0  0  0  0
  2  3  1  0  0  0  0
  3  4  2  0  0  0  0
  4  5  1  0  0  0  0
  4  9  1  0  0  0  0
  5 10  1  0  0  0  0
  6 14  1  0  0  0  0
  6  5  2  0  0  0  0
  7  1  1  0  0  0  0
  8  2  1  0  0  0  0
 11  3  1  0  0  0  0
 11 12  1  0  0  0  0
 12 13  1  0  0  0  0
 14 15  1  0  0  0  0
 15 16  1  0  0  0  0
 15 18  1  0  0  0  0
 17 15  1  0  0  0  0
M  RAD  2  11   2  12   2
M  END
