Coordinates from ORCA-job p-CH3O-Ph-N2-X-Cl-B3LYPG-6-31G_dp-scan-d09-49-n400
 OpenBabel08281821013D

 18 18  0  0  0  0  0  0  0  0999 V2000
   -1.1244   -1.5843   -1.3154 C   0  0  0  0  0  0  0  0  0  0  0  0
    0.0956   -0.9807   -1.5744 C   0  0  0  0  0  0  0  0  0  0  0  0
    0.3221    0.3135   -1.0928 C   0  0  0  0  0  0  0  0  0  0  0  0
   -0.6546    1.0124   -0.3911 C   0  0  0  0  0  0  0  0  0  0  0  0
   -1.8766    0.3966   -0.1240 C   0  0  0  0  0  0  0  0  0  0  0  0
   -2.1175   -0.9043   -0.5884 C   0  0  0  0  0  0  0  0  0  0  0  0
   -1.3329   -2.5906   -1.6603 H   0  0  0  0  0  0  0  0  0  0  0  0
    0.8698   -1.5021   -2.1257 H   0  0  0  0  0  0  0  0  0  0  0  0
   -0.4472    2.0135   -0.0319 H   0  0  0  0  0  0  0  0  0  0  0  0
   -2.6250    0.9364    0.4429 H   0  0  0  0  0  0  0  0  0  0  0  0
    1.5523    0.9641   -1.3886 N   0  0  0  0  0  0  0  0  0  0  0  0
    2.6271    0.9494   -0.9159 N   0  0  0  0  0  0  0  0  0  0  0  0
    2.8164   -0.2652    0.7578 Cl  0  0  0  0  0  0  0  0  0  0  0  0
   -3.2713   -1.5912   -0.3921 O   0  0  0  0  0  0  0  0  0  0  0  0
   -4.3130   -0.9734    0.3539 C   0  0  0  0  0  0  0  0  0  0  0  0
   -5.1248   -1.7008    0.3916 H   0  0  0  0  0  0  0  0  0  0  0  0
   -4.6694   -0.0584   -0.1348 H   0  0  0  0  0  0  0  0  0  0  0  0
   -3.9900   -0.7379    1.3752 H   0  0  0  0  0  0  0  0  0  0  0  0
  1  6  1  0  0  0  0
  2  1  2  0  0  0  0
  2  3  1  0  0  0  0
  3  4  2  0  0  0  0
  4  5  1  0  0  0  0
  4  9  1  0  0  0  0
  5 10  1  0  0  0  0
  6 14  1  0  0  0  0
  6  5  2  0  0  0  0
  7  1  1  0  0  0  0
  8  2  1  0  0  0  0
 11  3  1  0  0  0  0
 11 12  1  0  0  0  0
 12 13  1  0  0  0  0
 14 15  1  0  0  0  0
 15 16  1  0  0  0  0
 15 18  1  0  0  0  0
 17 15  1  0  0  0  0
M  RAD  2  11   2  12   2
M  END
