Coordinates from ORCA-job p-CH3O-Ph-N2-X-Cl-B3LYPG-6-31G_dp-scan-d09-49-n400
 OpenBabel08281821013D

 18 18  0  0  0  0  0  0  0  0999 V2000
   -1.1716   -1.6026   -1.3823 C   0  0  0  0  0  0  0  0  0  0  0  0
    0.0577   -1.0221   -1.6482 C   0  0  0  0  0  0  0  0  0  0  0  0
    0.3425    0.2391   -1.1120 C   0  0  0  0  0  0  0  0  0  0  0  0
   -0.6023    0.9441   -0.3687 C   0  0  0  0  0  0  0  0  0  0  0  0
   -1.8410    0.3581   -0.1122 C   0  0  0  0  0  0  0  0  0  0  0  0
   -2.1294   -0.9200   -0.6120 C   0  0  0  0  0  0  0  0  0  0  0  0
   -1.4172   -2.5884   -1.7604 H   0  0  0  0  0  0  0  0  0  0  0  0
    0.8013   -1.5412   -2.2429 H   0  0  0  0  0  0  0  0  0  0  0  0
   -0.3810    1.9367    0.0066 H   0  0  0  0  0  0  0  0  0  0  0  0
   -2.5669    0.9050    0.4767 H   0  0  0  0  0  0  0  0  0  0  0  0
    1.5878    0.8473   -1.4247 N   0  0  0  0  0  0  0  0  0  0  0  0
    2.6243    0.9897   -0.8973 N   0  0  0  0  0  0  0  0  0  0  0  0
    2.7887    0.1203    1.0049 Cl  0  0  0  0  0  0  0  0  0  0  0  0
   -3.2997   -1.5775   -0.4172 O   0  0  0  0  0  0  0  0  0  0  0  0
   -4.3089   -0.9549    0.3690 C   0  0  0  0  0  0  0  0  0  0  0  0
   -5.1413   -1.6590    0.3978 H   0  0  0  0  0  0  0  0  0  0  0  0
   -4.6466   -0.0139   -0.0821 H   0  0  0  0  0  0  0  0  0  0  0  0
   -3.9600   -0.7638    1.3910 H   0  0  0  0  0  0  0  0  0  0  0  0
  1  6  1  0  0  0  0
  2  1  2  0  0  0  0
  2  3  1  0  0  0  0
  3  4  2  0  0  0  0
  4  5  1  0  0  0  0
  4  9  1  0  0  0  0
  5 10  1  0  0  0  0
  6 14  1  0  0  0  0
  6  5  2  0  0  0  0
  7  1  1  0  0  0  0
  8  2  1  0  0  0  0
 11  3  1  0  0  0  0
 11 12  2  0  0  0  0
 12 13  1  0  0  0  0
 14 15  1  0  0  0  0
 15 16  1  0  0  0  0
 15 18  1  0  0  0  0
 17 15  1  0  0  0  0
M  END
