Coordinates from ORCA-job p-CH3O-Ph-N2-X-Cl-B3LYPG-6-31G_dp-scan-d09-49-n400
 OpenBabel08281821013D

 18 18  0  0  0  0  0  0  0  0999 V2000
   -1.0620   -1.5650   -1.1861 C   0  0  0  0  0  0  0  0  0  0  0  0
    0.1519   -0.9385   -1.4099 C   0  0  0  0  0  0  0  0  0  0  0  0
    0.3062    0.3918   -0.9938 C   0  0  0  0  0  0  0  0  0  0  0  0
   -0.7280    1.0831   -0.3718 C   0  0  0  0  0  0  0  0  0  0  0  0
   -1.9364    0.4404   -0.1162 C   0  0  0  0  0  0  0  0  0  0  0  0
   -2.1105   -0.8874   -0.5353 C   0  0  0  0  0  0  0  0  0  0  0  0
   -1.2252   -2.5910   -1.4960 H   0  0  0  0  0  0  0  0  0  0  0  0
    0.9704   -1.4598   -1.8906 H   0  0  0  0  0  0  0  0  0  0  0  0
   -0.5440    2.0997   -0.0502 H   0  0  0  0  0  0  0  0  0  0  0  0
   -2.7255    0.9754    0.3971 H   0  0  0  0  0  0  0  0  0  0  0  0
    1.5027    1.1028   -1.2447 N   0  0  0  0  0  0  0  0  0  0  0  0
    2.6408    0.9320   -0.9993 N   0  0  0  0  0  0  0  0  0  0  0  0
    3.0302   -0.7389    0.1616 Cl  0  0  0  0  0  0  0  0  0  0  0  0
   -3.2472   -1.6049   -0.3619 O   0  0  0  0  0  0  0  0  0  0  0  0
   -4.3498   -0.9902    0.2955 C   0  0  0  0  0  0  0  0  0  0  0  0
   -5.1369   -1.7445    0.3256 H   0  0  0  0  0  0  0  0  0  0  0  0
   -4.7083   -0.1135   -0.2575 H   0  0  0  0  0  0  0  0  0  0  0  0
   -4.0919   -0.6944    1.3194 H   0  0  0  0  0  0  0  0  0  0  0  0
  1  6  1  0  0  0  0
  2  1  2  0  0  0  0
  2  3  1  0  0  0  0
  3  4  2  0  0  0  0
  4  5  1  0  0  0  0
  4  9  1  0  0  0  0
  5 10  1  0  0  0  0
  6 14  1  0  0  0  0
  6  5  2  0  0  0  0
  7  1  1  0  0  0  0
  8  2  1  0  0  0  0
 11 12  1  0  0  0  0
 11  3  1  0  0  0  0
 12 13  1  0  0  0  0
 14 15  1  0  0  0  0
 15 16  1  0  0  0  0
 15 18  1  0  0  0  0
 17 15  1  0  0  0  0
M  RAD  2  11   2  12   2
M  END
