Coordinates from ORCA-job p-CH3O-Ph-N2-X-Cl-B3LYPG-6-31G_dp-scan-d09-49-n400
 OpenBabel08281821013D

 18 17  0  0  0  0  0  0  0  0999 V2000
   -1.3532   -1.6463   -1.6832 C   0  0  0  0  0  0  0  0  0  0  0  0
   -0.0441   -1.2996   -1.8789 C   0  0  0  0  0  0  0  0  0  0  0  0
    0.4562   -0.2408   -1.0669 C   0  0  0  0  0  0  0  0  0  0  0  0
   -0.2387    0.4971   -0.0819 C   0  0  0  0  0  0  0  0  0  0  0  0
   -1.5718    0.0841    0.0586 C   0  0  0  0  0  0  0  0  0  0  0  0
   -2.1280   -0.9521   -0.7071 C   0  0  0  0  0  0  0  0  0  0  0  0
   -1.8265   -2.4394   -2.2508 H   0  0  0  0  0  0  0  0  0  0  0  0
    0.5773   -1.8049   -2.6127 H   0  0  0  0  0  0  0  0  0  0  0  0
    0.5136    1.7184    0.7862 H   0  0  0  0  0  0  0  0  0  0  0  0
   -2.1938    0.5907    0.7920 H   0  0  0  0  0  0  0  0  0  0  0  0
    1.7639    0.1218   -1.2443 N   0  0  0  0  0  0  0  0  0  0  0  0
    2.8304    0.4505   -1.3570 N   0  0  0  0  0  0  0  0  0  0  0  0
    1.1668    2.6689    1.4305 Cl  0  0  0  0  0  0  0  0  0  0  0  0
   -3.3977   -1.3900   -0.6131 O   0  0  0  0  0  0  0  0  0  0  0  0
   -4.2765   -0.7727    0.3295 C   0  0  0  0  0  0  0  0  0  0  0  0
   -5.2288   -1.2926    0.2276 H   0  0  0  0  0  0  0  0  0  0  0  0
   -4.4113    0.2909    0.1053 H   0  0  0  0  0  0  0  0  0  0  0  0
   -3.9014   -0.8868    1.3522 H   0  0  0  0  0  0  0  0  0  0  0  0
  1  6  1  0  0  0  0
  2  1  2  0  0  0  0
  2  3  1  0  0  0  0
  3  4  2  0  0  0  0
  4  5  1  0  0  0  0
  5 10  1  0  0  0  0
  6 14  1  0  0  0  0
  6  5  2  0  0  0  0
  7  1  1  0  0  0  0
  8  2  1  0  0  0  0
  9 13  1  0  0  0  0
 11  3  1  0  0  0  0
 12 11  1  0  0  0  0
 14 15  1  0  0  0  0
 15 18  1  0  0  0  0
 16 15  1  0  0  0  0
 17 15  1  0  0  0  0
M  RAD  3   4   2  11   2  12   3
M  END
