Coordinates from ORCA-job p-CH3O-Ph-N2-X-Cl-B3LYPG-6-31G_dp-scan-d09-49-n400
 OpenBabel08281821013D

 18 17  0  0  0  0  0  0  0  0999 V2000
   -1.3470   -1.6147   -1.6529 C   0  0  0  0  0  0  0  0  0  0  0  0
   -0.0288   -1.2493   -1.8360 C   0  0  0  0  0  0  0  0  0  0  0  0
    0.4804   -0.2067   -1.0450 C   0  0  0  0  0  0  0  0  0  0  0  0
   -0.2787    0.4757   -0.0873 C   0  0  0  0  0  0  0  0  0  0  0  0
   -1.6045    0.0965    0.0841 C   0  0  0  0  0  0  0  0  0  0  0  0
   -2.1420   -0.9457   -0.6937 C   0  0  0  0  0  0  0  0  0  0  0  0
   -1.8009   -2.4121   -2.2305 H   0  0  0  0  0  0  0  0  0  0  0  0
    0.6011   -1.7471   -2.5657 H   0  0  0  0  0  0  0  0  0  0  0  0
    0.2917    1.2900    0.4630 H   0  0  0  0  0  0  0  0  0  0  0  0
   -2.2132    0.6102    0.8190 H   0  0  0  0  0  0  0  0  0  0  0  0
    1.8127    0.1956   -1.1978 N   0  0  0  0  0  0  0  0  0  0  0  0
    2.5753    0.9591   -0.7726 N   0  0  0  0  0  0  0  0  0  0  0  0
    1.7066    2.2961    0.8657 Cl  0  0  0  0  0  0  0  0  0  0  0  0
   -3.4141   -1.3884   -0.6030 O   0  0  0  0  0  0  0  0  0  0  0  0
   -4.2949   -0.7732    0.3349 C   0  0  0  0  0  0  0  0  0  0  0  0
   -5.2469   -1.2935    0.2318 H   0  0  0  0  0  0  0  0  0  0  0  0
   -4.4342    0.2907    0.1109 H   0  0  0  0  0  0  0  0  0  0  0  0
   -3.9260   -0.8862    1.3608 H   0  0  0  0  0  0  0  0  0  0  0  0
  1  6  1  0  0  0  0
  2  1  2  0  0  0  0
  2  3  1  0  0  0  0
  3  4  2  0  0  0  0
  4  5  1  0  0  0  0
  4  9  1  0  0  0  0
  5 10  1  0  0  0  0
  6 14  1  0  0  0  0
  6  5  2  0  0  0  0
  7  1  1  0  0  0  0
  8  2  1  0  0  0  0
 11  3  1  0  0  0  0
 11 12  2  0  0  0  0
 14 15  1  0  0  0  0
 15 18  1  0  0  0  0
 16 15  1  0  0  0  0
 17 15  1  0  0  0  0
M  RAD  2  12   2  13   2
M  END
