Coordinates from ORCA-job p-CH3O-Ph-N2-X-Cl-B3LYPG-6-31G_dp-scan-d09-49-n400
 OpenBabel08281821013D

 18 17  0  0  0  0  0  0  0  0999 V2000
   -1.3831   -1.6988   -1.7233 C   0  0  0  0  0  0  0  0  0  0  0  0
   -0.0730   -1.3722   -1.9374 C   0  0  0  0  0  0  0  0  0  0  0  0
    0.4464   -0.3150   -1.1308 C   0  0  0  0  0  0  0  0  0  0  0  0
   -0.2038    0.4520   -0.1335 C   0  0  0  0  0  0  0  0  0  0  0  0
   -1.5474    0.0438    0.0144 C   0  0  0  0  0  0  0  0  0  0  0  0
   -2.1301   -0.9852   -0.7374 C   0  0  0  0  0  0  0  0  0  0  0  0
   -1.8787   -2.4863   -2.2798 H   0  0  0  0  0  0  0  0  0  0  0  0
    0.5322   -1.8888   -2.6777 H   0  0  0  0  0  0  0  0  0  0  0  0
    0.6730    2.1778    1.1605 H   0  0  0  0  0  0  0  0  0  0  0  0
   -2.1635    0.5556    0.7509 H   0  0  0  0  0  0  0  0  0  0  0  0
    1.7574    0.0253   -1.3301 N   0  0  0  0  0  0  0  0  0  0  0  0
    2.8289    0.3364   -1.4611 N   0  0  0  0  0  0  0  0  0  0  0  0
    1.0379    2.9026    1.6924 Cl  0  0  0  0  0  0  0  0  0  0  0  0
   -3.4085   -1.4067   -0.6259 O   0  0  0  0  0  0  0  0  0  0  0  0
   -4.2631   -0.7726    0.3241 C   0  0  0  0  0  0  0  0  0  0  0  0
   -5.2256   -1.2776    0.2392 H   0  0  0  0  0  0  0  0  0  0  0  0
   -4.3857    0.2926    0.0986 H   0  0  0  0  0  0  0  0  0  0  0  0
   -3.8767   -0.8859    1.3431 H   0  0  0  0  0  0  0  0  0  0  0  0
  1  6  1  0  0  0  0
  2  1  2  0  0  0  0
  2  3  1  0  0  0  0
  3  4  2  0  0  0  0
  4  5  1  0  0  0  0
  5 10  1  0  0  0  0
  6 14  1  0  0  0  0
  6  5  2  0  0  0  0
  7  1  1  0  0  0  0
  8  2  1  0  0  0  0
  9 13  1  0  0  0  0
 11  3  1  0  0  0  0
 12 11  1  0  0  0  0
 14 15  1  0  0  0  0
 15 18  1  0  0  0  0
 16 15  1  0  0  0  0
 17 15  1  0  0  0  0
M  RAD  3   4   2  11   2  12   3
M  END
