Coordinates from ORCA-job p-CH3O-Ph-N2-X-Cl-B3LYPG-6-31G_dp-scan-d09-49-n400
 OpenBabel08281821013D

 18 18  0  0  0  0  0  0  0  0999 V2000
   -1.0643   -1.5653   -1.1935 C   0  0  0  0  0  0  0  0  0  0  0  0
    0.1494   -0.9392   -1.4198 C   0  0  0  0  0  0  0  0  0  0  0  0
    0.3063    0.3898   -1.0014 C   0  0  0  0  0  0  0  0  0  0  0  0
   -0.7247    1.0810   -0.3743 C   0  0  0  0  0  0  0  0  0  0  0  0
   -1.9332    0.4387   -0.1169 C   0  0  0  0  0  0  0  0  0  0  0  0
   -2.1102   -0.8879   -0.5383 C   0  0  0  0  0  0  0  0  0  0  0  0
   -1.2293   -2.5907   -1.5045 H   0  0  0  0  0  0  0  0  0  0  0  0
    0.9661   -1.4603   -1.9039 H   0  0  0  0  0  0  0  0  0  0  0  0
   -0.5395    2.0966   -0.0497 H   0  0  0  0  0  0  0  0  0  0  0  0
   -2.7200    0.9733    0.4002 H   0  0  0  0  0  0  0  0  0  0  0  0
    1.5049    1.0975   -1.2562 N   0  0  0  0  0  0  0  0  0  0  0  0
    2.6400    0.9295   -0.9951 N   0  0  0  0  0  0  0  0  0  0  0  0
    3.0116   -0.7197    0.1998 Cl  0  0  0  0  0  0  0  0  0  0  0  0
   -3.2474   -1.6045   -0.3631 O   0  0  0  0  0  0  0  0  0  0  0  0
   -4.3469   -0.9900    0.2994 C   0  0  0  0  0  0  0  0  0  0  0  0
   -5.1350   -1.7432    0.3301 H   0  0  0  0  0  0  0  0  0  0  0  0
   -4.7059   -0.1113   -0.2501 H   0  0  0  0  0  0  0  0  0  0  0  0
   -4.0853   -0.6972    1.3232 H   0  0  0  0  0  0  0  0  0  0  0  0
  1  6  1  0  0  0  0
  2  1  2  0  0  0  0
  2  3  1  0  0  0  0
  3  4  2  0  0  0  0
  4  5  1  0  0  0  0
  4  9  1  0  0  0  0
  5 10  1  0  0  0  0
  6 14  1  0  0  0  0
  6  5  2  0  0  0  0
  7  1  1  0  0  0  0
  8  2  1  0  0  0  0
 11  3  1  0  0  0  0
 11 12  1  0  0  0  0
 12 13  1  0  0  0  0
 14 15  1  0  0  0  0
 15 16  1  0  0  0  0
 15 18  1  0  0  0  0
 17 15  1  0  0  0  0
M  RAD  2  11   2  12   2
M  END
