Coordinates from ORCA-job p-CH3O-Ph-N2-X-Cl-B3LYPG-6-31G_dp-scan-d09-49-n400
 OpenBabel08281821013D

 18 18  0  0  0  0  0  0  0  0999 V2000
   -1.2260   -1.6192   -1.4554 C   0  0  0  0  0  0  0  0  0  0  0  0
    0.0177   -1.0710   -1.7155 C   0  0  0  0  0  0  0  0  0  0  0  0
    0.3710    0.1456   -1.1145 C   0  0  0  0  0  0  0  0  0  0  0  0
   -0.5380    0.8520   -0.3233 C   0  0  0  0  0  0  0  0  0  0  0  0
   -1.7984    0.3069   -0.0869 C   0  0  0  0  0  0  0  0  0  0  0  0
   -2.1441   -0.9365   -0.6371 C   0  0  0  0  0  0  0  0  0  0  0  0
   -1.5177   -2.5735   -1.8786 H   0  0  0  0  0  0  0  0  0  0  0  0
    0.7290   -1.5834   -2.3541 H   0  0  0  0  0  0  0  0  0  0  0  0
   -0.2913    1.8259    0.0819 H   0  0  0  0  0  0  0  0  0  0  0  0
   -2.4986    0.8595    0.5272 H   0  0  0  0  0  0  0  0  0  0  0  0
    1.6367    0.6899   -1.4295 N   0  0  0  0  0  0  0  0  0  0  0  0
    2.6284    1.0095   -0.8971 N   0  0  0  0  0  0  0  0  0  0  0  0
    2.7370    0.6393    1.1909 Cl  0  0  0  0  0  0  0  0  0  0  0  0
   -3.3357   -1.5541   -0.4546 O   0  0  0  0  0  0  0  0  0  0  0  0
   -4.3099   -0.9308    0.3757 C   0  0  0  0  0  0  0  0  0  0  0  0
   -5.1670   -1.6046    0.3859 H   0  0  0  0  0  0  0  0  0  0  0  0
   -4.6182    0.0411   -0.0278 H   0  0  0  0  0  0  0  0  0  0  0  0
   -3.9382   -0.7996    1.3989 H   0  0  0  0  0  0  0  0  0  0  0  0
  1  6  1  0  0  0  0
  2  1  2  0  0  0  0
  2  3  1  0  0  0  0
  3  4  2  0  0  0  0
  4  5  1  0  0  0  0
  4  9  1  0  0  0  0
  5 10  1  0  0  0  0
  6 14  1  0  0  0  0
  6  5  2  0  0  0  0
  7  1  1  0  0  0  0
  8  2  1  0  0  0  0
 11  3  1  0  0  0  0
 11 12  2  0  0  0  0
 12 13  1  0  0  0  0
 14 15  1  0  0  0  0
 15 16  1  0  0  0  0
 15 18  1  0  0  0  0
 17 15  1  0  0  0  0
M  END
