Coordinates from ORCA-job p-CH3O-Ph-N2-X-Cl-B3LYPG-6-31G_dp-scan-d09-49-n400
 OpenBabel08281821013D

 18 18  0  0  0  0  0  0  0  0999 V2000
   -1.0870   -1.5717   -1.2474 C   0  0  0  0  0  0  0  0  0  0  0  0
    0.1277   -0.9526   -1.4910 C   0  0  0  0  0  0  0  0  0  0  0  0
    0.3100    0.3641   -1.0501 C   0  0  0  0  0  0  0  0  0  0  0  0
   -0.6964    1.0568   -0.3872 C   0  0  0  0  0  0  0  0  0  0  0  0
   -1.9081    0.4221   -0.1203 C   0  0  0  0  0  0  0  0  0  0  0  0
   -2.1109   -0.8941   -0.5603 C   0  0  0  0  0  0  0  0  0  0  0  0
   -1.2681   -2.5906   -1.5703 H   0  0  0  0  0  0  0  0  0  0  0  0
    0.9280   -1.4737   -2.0029 H   0  0  0  0  0  0  0  0  0  0  0  0
   -0.5000    2.0646   -0.0438 H   0  0  0  0  0  0  0  0  0  0  0  0
   -2.6774    0.9568    0.4226 H   0  0  0  0  0  0  0  0  0  0  0  0
    1.5219    1.0493   -1.3280 N   0  0  0  0  0  0  0  0  0  0  0  0
    2.6330    0.9283   -0.9613 N   0  0  0  0  0  0  0  0  0  0  0  0
    2.9037   -0.5444    0.4642 Cl  0  0  0  0  0  0  0  0  0  0  0  0
   -3.2538   -1.6005   -0.3734 O   0  0  0  0  0  0  0  0  0  0  0  0
   -4.3292   -0.9845    0.3254 C   0  0  0  0  0  0  0  0  0  0  0  0
   -5.1272   -1.7272    0.3593 H   0  0  0  0  0  0  0  0  0  0  0  0
   -4.6885   -0.0902   -0.1983 H   0  0  0  0  0  0  0  0  0  0  0  0
   -4.0411   -0.7155    1.3487 H   0  0  0  0  0  0  0  0  0  0  0  0
  1  6  1  0  0  0  0
  2  1  2  0  0  0  0
  2  3  1  0  0  0  0
  3  4  2  0  0  0  0
  4  5  1  0  0  0  0
  4  9  1  0  0  0  0
  5 10  1  0  0  0  0
  6 14  1  0  0  0  0
  6  5  2  0  0  0  0
  7  1  1  0  0  0  0
  8  2  1  0  0  0  0
 11  3  1  0  0  0  0
 11 12  1  0  0  0  0
 12 13  1  0  0  0  0
 14 15  1  0  0  0  0
 15 16  1  0  0  0  0
 15 18  1  0  0  0  0
 17 15  1  0  0  0  0
M  RAD  2  11   2  12   2
M  END
