Coordinates from ORCA-job p-CH3O-Ph-N2-X-Cl-B3LYPG-6-31G_dp-scan-d09-49-n400
 OpenBabel08281821013D

 18 18  0  0  0  0  0  0  0  0999 V2000
   -1.0945   -1.5743   -1.2622 C   0  0  0  0  0  0  0  0  0  0  0  0
    0.1209   -0.9580   -1.5101 C   0  0  0  0  0  0  0  0  0  0  0  0
    0.3119    0.3544   -1.0614 C   0  0  0  0  0  0  0  0  0  0  0  0
   -0.6876    1.0480   -0.3889 C   0  0  0  0  0  0  0  0  0  0  0  0
   -1.9010    0.4167   -0.1208 C   0  0  0  0  0  0  0  0  0  0  0  0
   -2.1118   -0.8964   -0.5661 C   0  0  0  0  0  0  0  0  0  0  0  0
   -1.2810   -2.5910   -1.5891 H   0  0  0  0  0  0  0  0  0  0  0  0
    0.9160   -1.4792   -2.0303 H   0  0  0  0  0  0  0  0  0  0  0  0
   -0.4880    2.0539   -0.0410 H   0  0  0  0  0  0  0  0  0  0  0  0
   -2.6654    0.9520    0.4284 H   0  0  0  0  0  0  0  0  0  0  0  0
    1.5276    1.0330   -1.3446 N   0  0  0  0  0  0  0  0  0  0  0  0
    2.6312    0.9317   -0.9514 N   0  0  0  0  0  0  0  0  0  0  0  0
    2.8805   -0.4876    0.5319 Cl  0  0  0  0  0  0  0  0  0  0  0  0
   -3.2568   -1.5990   -0.3766 O   0  0  0  0  0  0  0  0  0  0  0  0
   -4.3253   -0.9822    0.3318 C   0  0  0  0  0  0  0  0  0  0  0  0
   -5.1263   -1.7216    0.3665 H   0  0  0  0  0  0  0  0  0  0  0  0
   -4.6839   -0.0836   -0.1849 H   0  0  0  0  0  0  0  0  0  0  0  0
   -4.0300   -0.7198    1.3548 H   0  0  0  0  0  0  0  0  0  0  0  0
  1  6  1  0  0  0  0
  2  1  2  0  0  0  0
  2  3  1  0  0  0  0
  3  4  2  0  0  0  0
  4  5  1  0  0  0  0
  4  9  1  0  0  0  0
  5 10  1  0  0  0  0
  6 14  1  0  0  0  0
  6  5  2  0  0  0  0
  7  1  1  0  0  0  0
  8  2  1  0  0  0  0
 11  3  1  0  0  0  0
 11 12  1  0  0  0  0
 12 13  1  0  0  0  0
 14 15  1  0  0  0  0
 15 16  1  0  0  0  0
 15 18  1  0  0  0  0
 17 15  1  0  0  0  0
M  RAD  2  11   2  12   2
M  END
