Coordinates from ORCA-job p-CH3O-Ph-N2-X-Cl-B3LYPG-6-31G_dp-scan-d09-49-n400
 OpenBabel08281821013D

 18 17  0  0  0  0  0  0  0  0999 V2000
   -1.3462   -1.5963   -1.6345 C   0  0  0  0  0  0  0  0  0  0  0  0
   -0.0327   -1.2002   -1.7877 C   0  0  0  0  0  0  0  0  0  0  0  0
    0.4723   -0.1543   -0.9937 C   0  0  0  0  0  0  0  0  0  0  0  0
   -0.3353    0.4964   -0.0480 C   0  0  0  0  0  0  0  0  0  0  0  0
   -1.6567    0.0933    0.1000 C   0  0  0  0  0  0  0  0  0  0  0  0
   -2.1695   -0.9521   -0.6885 C   0  0  0  0  0  0  0  0  0  0  0  0
   -1.7695   -2.3991   -2.2276 H   0  0  0  0  0  0  0  0  0  0  0  0
    0.6175   -1.6823   -2.5098 H   0  0  0  0  0  0  0  0  0  0  0  0
    0.0963    1.2982    0.5428 H   0  0  0  0  0  0  0  0  0  0  0  0
   -2.2794    0.5963    0.8296 H   0  0  0  0  0  0  0  0  0  0  0  0
    1.8090    0.1972   -1.1974 N   0  0  0  0  0  0  0  0  0  0  0  0
    2.6637    0.9138   -0.8509 N   0  0  0  0  0  0  0  0  0  0  0  0
    2.1957    2.3460    0.7282 Cl  0  0  0  0  0  0  0  0  0  0  0  0
   -3.4358   -1.4131   -0.6163 O   0  0  0  0  0  0  0  0  0  0  0  0
   -4.3384   -0.8156    0.3122 C   0  0  0  0  0  0  0  0  0  0  0  0
   -5.2813   -1.3489    0.1928 H   0  0  0  0  0  0  0  0  0  0  0  0
   -4.4903    0.2474    0.0917 H   0  0  0  0  0  0  0  0  0  0  0  0
   -3.9828   -0.9296    1.3429 H   0  0  0  0  0  0  0  0  0  0  0  0
  1  6  1  0  0  0  0
  2  1  2  0  0  0  0
  2  3  1  0  0  0  0
  3  4  2  0  0  0  0
  4  5  1  0  0  0  0
  4  9  1  0  0  0  0
  5 10  1  0  0  0  0
  6 14  1  0  0  0  0
  6  5  2  0  0  0  0
  7  1  1  0  0  0  0
  8  2  1  0  0  0  0
 11  3  1  0  0  0  0
 11 12  2  0  0  0  0
 14 15  1  0  0  0  0
 15 18  1  0  0  0  0
 16 15  1  0  0  0  0
 17 15  1  0  0  0  0
M  RAD  2  12   2  13   2
M  END
