Coordinates from ORCA-job p-CH3O-Ph-N2-X-Cl-B3LYPG-6-31G_dp-scan-d09-49-n400
 OpenBabel08281821013D

 18 17  0  0  0  0  0  0  0  0999 V2000
   -1.3387   -1.6203   -1.6628 C   0  0  0  0  0  0  0  0  0  0  0  0
   -0.0296   -1.2633   -1.8493 C   0  0  0  0  0  0  0  0  0  0  0  0
    0.4631   -0.2046   -1.0376 C   0  0  0  0  0  0  0  0  0  0  0  0
   -0.2616    0.5133   -0.0625 C   0  0  0  0  0  0  0  0  0  0  0  0
   -1.5882    0.1035    0.0793 C   0  0  0  0  0  0  0  0  0  0  0  0
   -2.1294   -0.9373   -0.6933 C   0  0  0  0  0  0  0  0  0  0  0  0
   -1.7993   -2.4167   -2.2359 H   0  0  0  0  0  0  0  0  0  0  0  0
    0.5995   -1.7635   -2.5794 H   0  0  0  0  0  0  0  0  0  0  0  0
    0.4156    1.5210    0.6345 H   0  0  0  0  0  0  0  0  0  0  0  0
   -2.2094    0.6108    0.8116 H   0  0  0  0  0  0  0  0  0  0  0  0
    1.7687    0.1737   -1.1988 N   0  0  0  0  0  0  0  0  0  0  0  0
    2.8296    0.5202   -1.2919 N   0  0  0  0  0  0  0  0  0  0  0  0
    1.2692    2.5254    1.2655 Cl  0  0  0  0  0  0  0  0  0  0  0  0
   -3.3938   -1.3838   -0.6078 O   0  0  0  0  0  0  0  0  0  0  0  0
   -4.2851   -0.7754    0.3310 C   0  0  0  0  0  0  0  0  0  0  0  0
   -5.2316   -1.3038    0.2212 H   0  0  0  0  0  0  0  0  0  0  0  0
   -4.4273    0.2870    0.1066 H   0  0  0  0  0  0  0  0  0  0  0  0
   -3.9151   -0.8892    1.3554 H   0  0  0  0  0  0  0  0  0  0  0  0
  1  6  1  0  0  0  0
  2  1  2  0  0  0  0
  2  3  1  0  0  0  0
  3  4  2  0  0  0  0
  4  5  1  0  0  0  0
  4  9  1  0  0  0  0
  5 10  1  0  0  0  0
  6 14  1  0  0  0  0
  6  5  2  0  0  0  0
  7  1  1  0  0  0  0
  8  2  1  0  0  0  0
 11  3  1  0  0  0  0
 12 11  1  0  0  0  0
 14 15  1  0  0  0  0
 15 18  1  0  0  0  0
 16 15  1  0  0  0  0
 17 15  1  0  0  0  0
M  RAD  3  11   2  12   3  13   2
M  END
