Coordinates from ORCA-job p-CH3O-Ph-N2-X-Cl-B3LYPG-6-31G_dp-scan-d09-49-n400
 OpenBabel08281821013D

 18 18  0  0  0  0  0  0  0  0999 V2000
   -1.0560   -1.5644   -1.1666 C   0  0  0  0  0  0  0  0  0  0  0  0
    0.1584   -0.9368   -1.3836 C   0  0  0  0  0  0  0  0  0  0  0  0
    0.3064    0.3966   -0.9731 C   0  0  0  0  0  0  0  0  0  0  0  0
   -0.7363    1.0885   -0.3647 C   0  0  0  0  0  0  0  0  0  0  0  0
   -1.9448    0.4448   -0.1145 C   0  0  0  0  0  0  0  0  0  0  0  0
   -2.1114   -0.8862   -0.5273 C   0  0  0  0  0  0  0  0  0  0  0  0
   -1.2149   -2.5920   -1.4734 H   0  0  0  0  0  0  0  0  0  0  0  0
    0.9814   -1.4584   -1.8555 H   0  0  0  0  0  0  0  0  0  0  0  0
   -0.5573    2.1084   -0.0509 H   0  0  0  0  0  0  0  0  0  0  0  0
   -2.7400    0.9808    0.3882 H   0  0  0  0  0  0  0  0  0  0  0  0
    1.4985    1.1145   -1.2146 N   0  0  0  0  0  0  0  0  0  0  0  0
    2.6436    0.9386   -1.0093 N   0  0  0  0  0  0  0  0  0  0  0  0
    3.0791   -0.7866    0.0590 Cl  0  0  0  0  0  0  0  0  0  0  0  0
   -3.2470   -1.6057   -0.3590 O   0  0  0  0  0  0  0  0  0  0  0  0
   -4.3575   -0.9907    0.2852 C   0  0  0  0  0  0  0  0  0  0  0  0
   -5.1421   -1.7478    0.3135 H   0  0  0  0  0  0  0  0  0  0  0  0
   -4.7143   -0.1190   -0.2766 H   0  0  0  0  0  0  0  0  0  0  0  0
   -4.1091   -0.6876    1.3092 H   0  0  0  0  0  0  0  0  0  0  0  0
  1  6  1  0  0  0  0
  2  1  2  0  0  0  0
  2  3  1  0  0  0  0
  3  4  2  0  0  0  0
  4  5  1  0  0  0  0
  4  9  1  0  0  0  0
  5 10  1  0  0  0  0
  6 14  1  0  0  0  0
  6  5  2  0  0  0  0
  7  1  1  0  0  0  0
  8  2  1  0  0  0  0
 11 12  1  0  0  0  0
 11  3  1  0  0  0  0
 12 13  1  0  0  0  0
 14 15  1  0  0  0  0
 15 16  1  0  0  0  0
 15 18  1  0  0  0  0
 17 15  1  0  0  0  0
M  RAD  2  11   2  12   2
M  END
