Coordinates from ORCA-job p-CH3O-Ph-N2-X-Cl-B3LYPG-6-31G_dp-scan-d09-49-n400
 OpenBabel08281821013D

 18 17  0  0  0  0  0  0  0  0999 V2000
   -1.3468   -1.6137   -1.6518 C   0  0  0  0  0  0  0  0  0  0  0  0
   -0.0288   -1.2466   -1.8334 C   0  0  0  0  0  0  0  0  0  0  0  0
    0.4807   -0.2040   -1.0425 C   0  0  0  0  0  0  0  0  0  0  0  0
   -0.2815    0.4760   -0.0852 C   0  0  0  0  0  0  0  0  0  0  0  0
   -1.6070    0.0960    0.0855 C   0  0  0  0  0  0  0  0  0  0  0  0
   -2.1432   -0.9461   -0.6931 C   0  0  0  0  0  0  0  0  0  0  0  0
   -1.7992   -2.4112   -2.2302 H   0  0  0  0  0  0  0  0  0  0  0  0
    0.6021   -1.7436   -2.5629 H   0  0  0  0  0  0  0  0  0  0  0  0
    0.2799    1.2873    0.4655 H   0  0  0  0  0  0  0  0  0  0  0  0
   -2.2160    0.6093    0.8203 H   0  0  0  0  0  0  0  0  0  0  0  0
    1.8130    0.1957   -1.1983 N   0  0  0  0  0  0  0  0  0  0  0  0
    2.5784    0.9589   -0.7751 N   0  0  0  0  0  0  0  0  0  0  0  0
    1.7318    2.2985    0.8575 Cl  0  0  0  0  0  0  0  0  0  0  0  0
   -3.4151   -1.3896   -0.6034 O   0  0  0  0  0  0  0  0  0  0  0  0
   -4.2971   -0.7749    0.3337 C   0  0  0  0  0  0  0  0  0  0  0  0
   -5.2488   -1.2956    0.2296 H   0  0  0  0  0  0  0  0  0  0  0  0
   -4.4366    0.2889    0.1098 H   0  0  0  0  0  0  0  0  0  0  0  0
   -3.9292   -0.8882    1.3600 H   0  0  0  0  0  0  0  0  0  0  0  0
  1  6  1  0  0  0  0
  2  1  2  0  0  0  0
  2  3  1  0  0  0  0
  3  4  2  0  0  0  0
  4  5  1  0  0  0  0
  4  9  1  0  0  0  0
  5 10  1  0  0  0  0
  6 14  1  0  0  0  0
  6  5  2  0  0  0  0
  7  1  1  0  0  0  0
  8  2  1  0  0  0  0
 11  3  1  0  0  0  0
 11 12  2  0  0  0  0
 14 15  1  0  0  0  0
 15 18  1  0  0  0  0
 16 15  1  0  0  0  0
 17 15  1  0  0  0  0
M  RAD  2  12   2  13   2
M  END
