Coordinates from ORCA-job p-CH3O-Ph-N2-X-Cl-B3LYPG-6-31G_dp-scan-d09-49-n400
 OpenBabel08281821013D

 18 18  0  0  0  0  0  0  0  0999 V2000
   -1.2549   -1.6249   -1.4928 C   0  0  0  0  0  0  0  0  0  0  0  0
   -0.0012   -1.0973   -1.7419 C   0  0  0  0  0  0  0  0  0  0  0  0
    0.3878    0.0919   -1.1052 C   0  0  0  0  0  0  0  0  0  0  0  0
   -0.5023    0.7945   -0.2862 C   0  0  0  0  0  0  0  0  0  0  0  0
   -1.7746    0.2737   -0.0640 C   0  0  0  0  0  0  0  0  0  0  0  0
   -2.1526   -0.9448   -0.6491 C   0  0  0  0  0  0  0  0  0  0  0  0
   -1.5723   -2.5577   -1.9446 H   0  0  0  0  0  0  0  0  0  0  0  0
    0.6948   -1.6038   -2.4018 H   0  0  0  0  0  0  0  0  0  0  0  0
   -0.2344    1.7498    0.1465 H   0  0  0  0  0  0  0  0  0  0  0  0
   -2.4604    0.8257    0.5667 H   0  0  0  0  0  0  0  0  0  0  0  0
    1.6659    0.5955   -1.4150 N   0  0  0  0  0  0  0  0  0  0  0  0
    2.6369    1.0036   -0.9068 N   0  0  0  0  0  0  0  0  0  0  0  0
    2.7007    0.9628    1.2289 Cl  0  0  0  0  0  0  0  0  0  0  0  0
   -3.3571   -1.5375   -0.4797 O   0  0  0  0  0  0  0  0  0  0  0  0
   -4.3148   -0.9157    0.3719 C   0  0  0  0  0  0  0  0  0  0  0  0
   -5.1871   -1.5697    0.3651 H   0  0  0  0  0  0  0  0  0  0  0  0
   -4.6010    0.0741   -0.0029 H   0  0  0  0  0  0  0  0  0  0  0  0
   -3.9369   -0.8231    1.3969 H   0  0  0  0  0  0  0  0  0  0  0  0
  1  6  1  0  0  0  0
  2  1  2  0  0  0  0
  2  3  1  0  0  0  0
  3  4  2  0  0  0  0
  4  5  1  0  0  0  0
  4  9  1  0  0  0  0
  5 10  1  0  0  0  0
  6 14  1  0  0  0  0
  6  5  2  0  0  0  0
  7  1  1  0  0  0  0
  8  2  1  0  0  0  0
 11  3  1  0  0  0  0
 11 12  2  0  0  0  0
 12 13  1  0  0  0  0
 14 15  1  0  0  0  0
 15 18  1  0  0  0  0
 16 15  1  0  0  0  0
 17 15  1  0  0  0  0
M  END
