Coordinates from ORCA-job p-CH3O-Ph-N2-X-Cl-B3LYPG-6-31G_dp-scan-d09-49-n400
 OpenBabel08281821013D

 18 17  0  0  0  0  0  0  0  0999 V2000
   -1.3835   -1.6996   -1.7237 C   0  0  0  0  0  0  0  0  0  0  0  0
   -0.0734   -1.3732   -1.9381 C   0  0  0  0  0  0  0  0  0  0  0  0
    0.4461   -0.3158   -1.1317 C   0  0  0  0  0  0  0  0  0  0  0  0
   -0.2037    0.4516   -0.1344 C   0  0  0  0  0  0  0  0  0  0  0  0
   -1.5474    0.0435    0.0136 C   0  0  0  0  0  0  0  0  0  0  0  0
   -2.1303   -0.9857   -0.7379 C   0  0  0  0  0  0  0  0  0  0  0  0
   -1.8792   -2.4872   -2.2799 H   0  0  0  0  0  0  0  0  0  0  0  0
    0.5317   -1.8900   -2.6783 H   0  0  0  0  0  0  0  0  0  0  0  0
    0.6766    2.1861    1.1673 H   0  0  0  0  0  0  0  0  0  0  0  0
   -2.1635    0.5554    0.7500 H   0  0  0  0  0  0  0  0  0  0  0  0
    1.7571    0.0244   -1.3312 N   0  0  0  0  0  0  0  0  0  0  0  0
    2.8286    0.3355   -1.4623 N   0  0  0  0  0  0  0  0  0  0  0  0
    1.0372    2.9032    1.6942 Cl  0  0  0  0  0  0  0  0  0  0  0  0
   -3.4087   -1.4071   -0.6261 O   0  0  0  0  0  0  0  0  0  0  0  0
   -4.2631   -0.7727    0.3240 C   0  0  0  0  0  0  0  0  0  0  0  0
   -5.2257   -1.2777    0.2393 H   0  0  0  0  0  0  0  0  0  0  0  0
   -4.3857    0.2924    0.0982 H   0  0  0  0  0  0  0  0  0  0  0  0
   -3.8765   -0.8858    1.3429 H   0  0  0  0  0  0  0  0  0  0  0  0
  1  6  1  0  0  0  0
  2  1  2  0  0  0  0
  2  3  1  0  0  0  0
  3  4  2  0  0  0  0
  4  5  1  0  0  0  0
  5 10  1  0  0  0  0
  6 14  1  0  0  0  0
  6  5  2  0  0  0  0
  7  1  1  0  0  0  0
  8  2  1  0  0  0  0
  9 13  1  0  0  0  0
 11  3  1  0  0  0  0
 12 11  1  0  0  0  0
 14 15  1  0  0  0  0
 15 18  1  0  0  0  0
 16 15  1  0  0  0  0
 17 15  1  0  0  0  0
M  RAD  3   4   2  11   2  12   3
M  END
