Coordinates from ORCA-job p-CH3O-Ph-N2-X-Cl-B3LYPG-6-31G_dp-scan-d09-49-n400
 OpenBabel08281821013D

 18 18  0  0  0  0  0  0  0  0999 V2000
   -1.1069   -1.5785   -1.2855 C   0  0  0  0  0  0  0  0  0  0  0  0
    0.1101   -0.9671   -1.5391 C   0  0  0  0  0  0  0  0  0  0  0  0
    0.3158    0.3379   -1.0770 C   0  0  0  0  0  0  0  0  0  0  0  0
   -0.6735    1.0335   -0.3910 C   0  0  0  0  0  0  0  0  0  0  0  0
   -1.8902    0.4083   -0.1224 C   0  0  0  0  0  0  0  0  0  0  0  0
   -2.1138   -0.8997   -0.5758 C   0  0  0  0  0  0  0  0  0  0  0  0
   -1.3025   -2.5911   -1.6196 H   0  0  0  0  0  0  0  0  0  0  0  0
    0.8964   -1.4884   -2.0729 H   0  0  0  0  0  0  0  0  0  0  0  0
   -0.4700    2.0369   -0.0374 H   0  0  0  0  0  0  0  0  0  0  0  0
   -2.6474    0.9452    0.4353 H   0  0  0  0  0  0  0  0  0  0  0  0
    1.5378    1.0048   -1.3665 N   0  0  0  0  0  0  0  0  0  0  0  0
    2.6290    0.9382   -0.9351 N   0  0  0  0  0  0  0  0  0  0  0  0
    2.8479   -0.3949    0.6343 Cl  0  0  0  0  0  0  0  0  0  0  0  0
   -3.2623   -1.5960   -0.3828 O   0  0  0  0  0  0  0  0  0  0  0  0
   -4.3194   -0.9786    0.3419 C   0  0  0  0  0  0  0  0  0  0  0  0
   -5.1249   -1.7131    0.3785 H   0  0  0  0  0  0  0  0  0  0  0  0
   -4.6775   -0.0731   -0.1630 H   0  0  0  0  0  0  0  0  0  0  0  0
   -4.0119   -0.7272    1.3642 H   0  0  0  0  0  0  0  0  0  0  0  0
  1  6  1  0  0  0  0
  2  1  2  0  0  0  0
  2  3  1  0  0  0  0
  3  4  2  0  0  0  0
  4  5  1  0  0  0  0
  4  9  1  0  0  0  0
  5 10  1  0  0  0  0
  6 14  1  0  0  0  0
  6  5  2  0  0  0  0
  7  1  1  0  0  0  0
  8  2  1  0  0  0  0
 11  3  1  0  0  0  0
 11 12  1  0  0  0  0
 12 13  1  0  0  0  0
 14 15  1  0  0  0  0
 15 16  1  0  0  0  0
 15 18  1  0  0  0  0
 17 15  1  0  0  0  0
M  RAD  2  11   2  12   2
M  END
