Coordinates from ORCA-job p-CH3O-Ph-N2-X-Cl-B3LYPG-6-31G_dp-scan-d09-49-n400
 OpenBabel08281821013D

 18 18  0  0  0  0  0  0  0  0999 V2000
   -1.1115   -1.5799   -1.2937 C   0  0  0  0  0  0  0  0  0  0  0  0
    0.1062   -0.9706   -1.5489 C   0  0  0  0  0  0  0  0  0  0  0  0
    0.3173    0.3317   -1.0818 C   0  0  0  0  0  0  0  0  0  0  0  0
   -0.6685    1.0282   -0.3915 C   0  0  0  0  0  0  0  0  0  0  0  0
   -1.8865    0.4053   -0.1231 C   0  0  0  0  0  0  0  0  0  0  0  0
   -2.1147   -0.9009   -0.5793 C   0  0  0  0  0  0  0  0  0  0  0  0
   -1.3105   -2.5910   -1.6305 H   0  0  0  0  0  0  0  0  0  0  0  0
    0.8893   -1.4919   -2.0875 H   0  0  0  0  0  0  0  0  0  0  0  0
   -0.4640    2.0309   -0.0363 H   0  0  0  0  0  0  0  0  0  0  0  0
   -2.6414    0.9430    0.4372 H   0  0  0  0  0  0  0  0  0  0  0  0
    1.5417    0.9942   -1.3730 N   0  0  0  0  0  0  0  0  0  0  0  0
    2.6284    0.9408   -0.9294 N   0  0  0  0  0  0  0  0  0  0  0  0
    2.8381   -0.3612    0.6689 Cl  0  0  0  0  0  0  0  0  0  0  0  0
   -3.2646   -1.5947   -0.3852 O   0  0  0  0  0  0  0  0  0  0  0  0
   -4.3174   -0.9773    0.3454 C   0  0  0  0  0  0  0  0  0  0  0  0
   -5.1245   -1.7100    0.3825 H   0  0  0  0  0  0  0  0  0  0  0  0
   -4.6754   -0.0693   -0.1551 H   0  0  0  0  0  0  0  0  0  0  0  0
   -4.0056   -0.7301    1.3674 H   0  0  0  0  0  0  0  0  0  0  0  0
  1  6  1  0  0  0  0
  2  1  2  0  0  0  0
  2  3  1  0  0  0  0
  3  4  2  0  0  0  0
  4  5  1  0  0  0  0
  4  9  1  0  0  0  0
  5 10  1  0  0  0  0
  6 14  1  0  0  0  0
  6  5  2  0  0  0  0
  7  1  1  0  0  0  0
  8  2  1  0  0  0  0
 11  3  1  0  0  0  0
 11 12  1  0  0  0  0
 12 13  1  0  0  0  0
 14 15  1  0  0  0  0
 15 16  1  0  0  0  0
 15 18  1  0  0  0  0
 17 15  1  0  0  0  0
M  RAD  2  11   2  12   2
M  END
