Coordinates from ORCA-job p-CH3O-Ph-N2-X-Cl-B3LYPG-6-31G_dp-scan-d09-49-n400
 OpenBabel08281821013D

 18 18  0  0  0  0  0  0  0  0999 V2000
   -1.0627   -1.5650   -1.1886 C   0  0  0  0  0  0  0  0  0  0  0  0
    0.1511   -0.9385   -1.4132 C   0  0  0  0  0  0  0  0  0  0  0  0
    0.3062    0.3913   -0.9964 C   0  0  0  0  0  0  0  0  0  0  0  0
   -0.7269    1.0826   -0.3727 C   0  0  0  0  0  0  0  0  0  0  0  0
   -1.9353    0.4398   -0.1164 C   0  0  0  0  0  0  0  0  0  0  0  0
   -2.1103   -0.8876   -0.5363 C   0  0  0  0  0  0  0  0  0  0  0  0
   -1.2264   -2.5909   -1.4987 H   0  0  0  0  0  0  0  0  0  0  0  0
    0.9690   -1.4597   -1.8951 H   0  0  0  0  0  0  0  0  0  0  0  0
   -0.5428    2.0989   -0.0499 H   0  0  0  0  0  0  0  0  0  0  0  0
   -2.7237    0.9746    0.3981 H   0  0  0  0  0  0  0  0  0  0  0  0
    1.5036    1.1009   -1.2490 N   0  0  0  0  0  0  0  0  0  0  0  0
    2.6406    0.9308   -0.9979 N   0  0  0  0  0  0  0  0  0  0  0  0
    3.0233   -0.7328    0.1746 Cl  0  0  0  0  0  0  0  0  0  0  0  0
   -3.2472   -1.6048   -0.3623 O   0  0  0  0  0  0  0  0  0  0  0  0
   -4.3487   -0.9902    0.2968 C   0  0  0  0  0  0  0  0  0  0  0  0
   -5.1362   -1.7441    0.3271 H   0  0  0  0  0  0  0  0  0  0  0  0
   -4.7074   -0.1128   -0.2550 H   0  0  0  0  0  0  0  0  0  0  0  0
   -4.0896   -0.6955    1.3207 H   0  0  0  0  0  0  0  0  0  0  0  0
  1  6  1  0  0  0  0
  2  1  2  0  0  0  0
  2  3  1  0  0  0  0
  3  4  2  0  0  0  0
  4  5  1  0  0  0  0
  4  9  1  0  0  0  0
  5 10  1  0  0  0  0
  6 14  1  0  0  0  0
  6  5  2  0  0  0  0
  7  1  1  0  0  0  0
  8  2  1  0  0  0  0
 11 12  1  0  0  0  0
 11  3  1  0  0  0  0
 12 13  1  0  0  0  0
 14 15  1  0  0  0  0
 15 16  1  0  0  0  0
 15 18  1  0  0  0  0
 17 15  1  0  0  0  0
M  RAD  2  11   2  12   2
M  END
