Coordinates from ORCA-job p-CH3O-Ph-N2-X-Cl-B3LYPG-6-31G_dp-scan-d09-49-n400
 OpenBabel08281821013D

 18 18  0  0  0  0  0  0  0  0999 V2000
   -1.1277   -1.5855   -1.3207 C   0  0  0  0  0  0  0  0  0  0  0  0
    0.0928   -0.9834   -1.5805 C   0  0  0  0  0  0  0  0  0  0  0  0
    0.3234    0.3086   -1.0952 C   0  0  0  0  0  0  0  0  0  0  0  0
   -0.6509    1.0081   -0.3905 C   0  0  0  0  0  0  0  0  0  0  0  0
   -1.8741    0.3942   -0.1238 C   0  0  0  0  0  0  0  0  0  0  0  0
   -2.1183   -0.9053   -0.5905 C   0  0  0  0  0  0  0  0  0  0  0  0
   -1.3388   -2.5906   -1.6677 H   0  0  0  0  0  0  0  0  0  0  0  0
    0.8649   -1.5048   -2.1350 H   0  0  0  0  0  0  0  0  0  0  0  0
   -0.4427    2.0087   -0.0302 H   0  0  0  0  0  0  0  0  0  0  0  0
   -2.6208    0.9346    0.4447 H   0  0  0  0  0  0  0  0  0  0  0  0
    1.5550    0.9563   -1.3922 N   0  0  0  0  0  0  0  0  0  0  0  0
    2.6268    0.9521   -0.9131 N   0  0  0  0  0  0  0  0  0  0  0  0
    2.8122   -0.2398    0.7788 Cl  0  0  0  0  0  0  0  0  0  0  0  0
   -3.2731   -1.5903   -0.3938 O   0  0  0  0  0  0  0  0  0  0  0  0
   -4.3122   -0.9723    0.3557 C   0  0  0  0  0  0  0  0  0  0  0  0
   -5.1253   -1.6983    0.3934 H   0  0  0  0  0  0  0  0  0  0  0  0
   -4.6679   -0.0555   -0.1301 H   0  0  0  0  0  0  0  0  0  0  0  0
   -3.9867   -0.7398    1.3768 H   0  0  0  0  0  0  0  0  0  0  0  0
  1  6  1  0  0  0  0
  2  1  2  0  0  0  0
  2  3  1  0  0  0  0
  3  4  2  0  0  0  0
  4  5  1  0  0  0  0
  4  9  1  0  0  0  0
  5 10  1  0  0  0  0
  6 14  1  0  0  0  0
  6  5  2  0  0  0  0
  7  1  1  0  0  0  0
  8  2  1  0  0  0  0
 11  3  1  0  0  0  0
 11 12  1  0  0  0  0
 12 13  1  0  0  0  0
 14 15  1  0  0  0  0
 15 16  1  0  0  0  0
 15 18  1  0  0  0  0
 17 15  1  0  0  0  0
M  RAD  2  11   2  12   2
M  END
