Coordinates from ORCA-job p-CH3O-Ph-N2-X-Cl-B3LYPG-6-31G_dp-scan-d09-49-n400
 OpenBabel08281821013D

 18 18  0  0  0  0  0  0  0  0999 V2000
   -1.0574   -1.5645   -1.1715 C   0  0  0  0  0  0  0  0  0  0  0  0
    0.1568   -0.9371   -1.3901 C   0  0  0  0  0  0  0  0  0  0  0  0
    0.3063    0.3956   -0.9784 C   0  0  0  0  0  0  0  0  0  0  0  0
   -0.7343    1.0872   -0.3665 C   0  0  0  0  0  0  0  0  0  0  0  0
   -1.9428    0.4437   -0.1149 C   0  0  0  0  0  0  0  0  0  0  0  0
   -2.1112   -0.8865   -0.5292 C   0  0  0  0  0  0  0  0  0  0  0  0
   -1.2174   -2.5917   -1.4790 H   0  0  0  0  0  0  0  0  0  0  0  0
    0.9788   -1.4586   -1.8642 H   0  0  0  0  0  0  0  0  0  0  0  0
   -0.5540    2.1063   -0.0507 H   0  0  0  0  0  0  0  0  0  0  0  0
   -2.7364    0.9794    0.3905 H   0  0  0  0  0  0  0  0  0  0  0  0
    1.4994    1.1118   -1.2224 N   0  0  0  0  0  0  0  0  0  0  0  0
    2.6429    0.9368   -1.0070 N   0  0  0  0  0  0  0  0  0  0  0  0
    3.0666   -0.7752    0.0848 Cl  0  0  0  0  0  0  0  0  0  0  0  0
   -3.2470   -1.6055   -0.3596 O   0  0  0  0  0  0  0  0  0  0  0  0
   -4.3556   -0.9906    0.2878 C   0  0  0  0  0  0  0  0  0  0  0  0
   -5.1407   -1.7470    0.3165 H   0  0  0  0  0  0  0  0  0  0  0  0
   -4.7128   -0.1177   -0.2719 H   0  0  0  0  0  0  0  0  0  0  0  0
   -4.1049   -0.6893    1.3118 H   0  0  0  0  0  0  0  0  0  0  0  0
  1  6  1  0  0  0  0
  2  1  2  0  0  0  0
  2  3  1  0  0  0  0
  3  4  2  0  0  0  0
  4  5  1  0  0  0  0
  4  9  1  0  0  0  0
  5 10  1  0  0  0  0
  6 14  1  0  0  0  0
  6  5  2  0  0  0  0
  7  1  1  0  0  0  0
  8  2  1  0  0  0  0
 11 12  1  0  0  0  0
 11  3  1  0  0  0  0
 12 13  1  0  0  0  0
 14 15  1  0  0  0  0
 15 16  1  0  0  0  0
 15 18  1  0  0  0  0
 17 15  1  0  0  0  0
M  RAD  2  11   2  12   2
M  END
