Coordinates from ORCA-job p-CH3O-Ph-N2-X-Cl-B3LYPG-6-31G_dp-scan-d09-49-n400
 OpenBabel08281821013D

 18 17  0  0  0  0  0  0  0  0999 V2000
   -1.3461   -1.6089   -1.6459 C   0  0  0  0  0  0  0  0  0  0  0  0
   -0.0292   -1.2330   -1.8202 C   0  0  0  0  0  0  0  0  0  0  0  0
    0.4805   -0.1893   -1.0297 C   0  0  0  0  0  0  0  0  0  0  0  0
   -0.2967    0.4808   -0.0758 C   0  0  0  0  0  0  0  0  0  0  0  0
   -1.6208    0.0951    0.0900 C   0  0  0  0  0  0  0  0  0  0  0  0
   -2.1504   -0.9483   -0.6912 C   0  0  0  0  0  0  0  0  0  0  0  0
   -1.7899   -2.4084   -2.2283 H   0  0  0  0  0  0  0  0  0  0  0  0
    0.6069   -1.7257   -2.5478 H   0  0  0  0  0  0  0  0  0  0  0  0
    0.2221    1.2843    0.4832 H   0  0  0  0  0  0  0  0  0  0  0  0
   -2.2328    0.6059    0.8236 H   0  0  0  0  0  0  0  0  0  0  0  0
    1.8136    0.1965   -1.2018 N   0  0  0  0  0  0  0  0  0  0  0  0
    2.5996    0.9523   -0.7928 N   0  0  0  0  0  0  0  0  0  0  0  0
    1.8628    2.3068    0.8215 Cl  0  0  0  0  0  0  0  0  0  0  0  0
   -3.4208   -1.3966   -0.6059 O   0  0  0  0  0  0  0  0  0  0  0  0
   -4.3085   -0.7854    0.3279 C   0  0  0  0  0  0  0  0  0  0  0  0
   -5.2581   -1.3092    0.2197 H   0  0  0  0  0  0  0  0  0  0  0  0
   -4.4509    0.2781    0.1039 H   0  0  0  0  0  0  0  0  0  0  0  0
   -3.9446   -0.8981    1.3557 H   0  0  0  0  0  0  0  0  0  0  0  0
  1  6  1  0  0  0  0
  2  1  2  0  0  0  0
  2  3  1  0  0  0  0
  3  4  2  0  0  0  0
  4  5  1  0  0  0  0
  4  9  1  0  0  0  0
  5 10  1  0  0  0  0
  6 14  1  0  0  0  0
  6  5  2  0  0  0  0
  7  1  1  0  0  0  0
  8  2  1  0  0  0  0
 11  3  1  0  0  0  0
 11 12  2  0  0  0  0
 14 15  1  0  0  0  0
 15 18  1  0  0  0  0
 16 15  1  0  0  0  0
 17 15  1  0  0  0  0
M  RAD  2  12   2  13   2
M  END
