Coordinates from ORCA-job p-CH3O-Ph-N2-X-Cl-B3LYPG-6-31G_dp-scan-d09-49-n400
 OpenBabel08281821013D

 18 17  0  0  0  0  0  0  0  0999 V2000
   -1.3462   -1.5957   -1.6340 C   0  0  0  0  0  0  0  0  0  0  0  0
   -0.0329   -1.1987   -1.7861 C   0  0  0  0  0  0  0  0  0  0  0  0
    0.4718   -0.1526   -0.9918 C   0  0  0  0  0  0  0  0  0  0  0  0
   -0.3372    0.4971   -0.0465 C   0  0  0  0  0  0  0  0  0  0  0  0
   -1.6584    0.0931    0.1006 C   0  0  0  0  0  0  0  0  0  0  0  0
   -2.1705   -0.9523   -0.6884 C   0  0  0  0  0  0  0  0  0  0  0  0
   -1.7686   -2.3985   -2.2276 H   0  0  0  0  0  0  0  0  0  0  0  0
    0.6180   -1.6802   -2.5079 H   0  0  0  0  0  0  0  0  0  0  0  0
    0.0906    1.2991    0.5460 H   0  0  0  0  0  0  0  0  0  0  0  0
   -2.2818    0.5956    0.8299 H   0  0  0  0  0  0  0  0  0  0  0  0
    1.8086    0.1974   -1.1967 N   0  0  0  0  0  0  0  0  0  0  0  0
    2.6668    0.9116   -0.8539 N   0  0  0  0  0  0  0  0  0  0  0  0
    2.2123    2.3485    0.7233 Cl  0  0  0  0  0  0  0  0  0  0  0  0
   -3.4365   -1.4138   -0.6169 O   0  0  0  0  0  0  0  0  0  0  0  0
   -4.3398   -0.8171    0.3114 C   0  0  0  0  0  0  0  0  0  0  0  0
   -5.2825   -1.3508    0.1914 H   0  0  0  0  0  0  0  0  0  0  0  0
   -4.4921    0.2458    0.0912 H   0  0  0  0  0  0  0  0  0  0  0  0
   -3.9847   -0.9313    1.3422 H   0  0  0  0  0  0  0  0  0  0  0  0
  1  6  1  0  0  0  0
  2  1  2  0  0  0  0
  2  3  1  0  0  0  0
  3  4  2  0  0  0  0
  4  5  1  0  0  0  0
  4  9  1  0  0  0  0
  5 10  1  0  0  0  0
  6 14  1  0  0  0  0
  6  5  2  0  0  0  0
  7  1  1  0  0  0  0
  8  2  1  0  0  0  0
 11  3  1  0  0  0  0
 11 12  2  0  0  0  0
 14 15  1  0  0  0  0
 15 18  1  0  0  0  0
 16 15  1  0  0  0  0
 17 15  1  0  0  0  0
M  RAD  2  12   2  13   2
M  END
