Coordinates from ORCA-job p-CH3O-Ph-N2-X-Cl-B3LYPG-6-31G_dp-scan-d09-49-n400
 OpenBabel08281821013D

 18 18  0  0  0  0  0  0  0  0999 V2000
   -1.2376   -1.6218   -1.4704 C   0  0  0  0  0  0  0  0  0  0  0  0
    0.0099   -1.0815   -1.7266 C   0  0  0  0  0  0  0  0  0  0  0  0
    0.3775    0.1245   -1.1115 C   0  0  0  0  0  0  0  0  0  0  0  0
   -0.5241    0.8298   -0.3096 C   0  0  0  0  0  0  0  0  0  0  0  0
   -1.7892    0.2942   -0.0786 C   0  0  0  0  0  0  0  0  0  0  0  0
   -2.1476   -0.9398   -0.6420 C   0  0  0  0  0  0  0  0  0  0  0  0
   -1.5394   -2.5679   -1.9047 H   0  0  0  0  0  0  0  0  0  0  0  0
    0.7150   -1.5918   -2.3738 H   0  0  0  0  0  0  0  0  0  0  0  0
   -0.2698    1.7974    0.1053 H   0  0  0  0  0  0  0  0  0  0  0  0
   -2.4838    0.8471    0.5416 H   0  0  0  0  0  0  0  0  0  0  0  0
    1.6480    0.6530   -1.4250 N   0  0  0  0  0  0  0  0  0  0  0  0
    2.6314    1.0087   -0.9010 N   0  0  0  0  0  0  0  0  0  0  0  0
    2.7255    0.7644    1.2121 Cl  0  0  0  0  0  0  0  0  0  0  0  0
   -3.3442   -1.5478   -0.4643 O   0  0  0  0  0  0  0  0  0  0  0  0
   -4.3116   -0.9251    0.3747 C   0  0  0  0  0  0  0  0  0  0  0  0
   -5.1747   -1.5913    0.3786 H   0  0  0  0  0  0  0  0  0  0  0  0
   -4.6116    0.0540   -0.0174 H   0  0  0  0  0  0  0  0  0  0  0  0
   -3.9370   -0.8089    1.3986 H   0  0  0  0  0  0  0  0  0  0  0  0
  1  6  1  0  0  0  0
  2  1  2  0  0  0  0
  2  3  1  0  0  0  0
  3  4  2  0  0  0  0
  4  5  1  0  0  0  0
  4  9  1  0  0  0  0
  5 10  1  0  0  0  0
  6 14  1  0  0  0  0
  6  5  2  0  0  0  0
  7  1  1  0  0  0  0
  8  2  1  0  0  0  0
 11  3  1  0  0  0  0
 11 12  2  0  0  0  0
 12 13  1  0  0  0  0
 14 15  1  0  0  0  0
 15 16  1  0  0  0  0
 15 18  1  0  0  0  0
 17 15  1  0  0  0  0
M  END
