2-HOOC-4-Br-Ph+-UB3LYP-aug-cc-pVDZ-Triplet.log
 OpenBabel05291812263D
Gaussian home/ubuntu/g09/g09 #p Temperature=298.15 opt=(maxcycles=1024) SCF=(max
 14 14  0  0  0  0  0  0  0  0999 V2000
    0.3915    2.4002    0.0001 C   0  0  0  0  0  0  0  0  0  0  0  0
    1.5288    1.5859   -0.0000 C   0  0  0  0  0  0  0  0  0  0  0  0
    1.5727    0.1786   -0.0001 C   0  0  0  0  0  0  0  0  0  0  0  0
    0.3489   -0.4698    0.0000 C   0  0  0  0  0  0  0  0  0  0  0  0
   -0.8468    0.3163    0.0001 C   0  0  0  0  0  0  0  0  0  0  0  0
   -0.8298    1.7494    0.0001 C   0  0  0  0  0  0  0  0  0  0  0  0
    0.4631    3.4884    0.0001 H   0  0  0  0  0  0  0  0  0  0  0  0
    0.2925   -1.5576   -0.0000 H   0  0  0  0  0  0  0  0  0  0  0  0
   -1.7685    2.3028    0.0003 H   0  0  0  0  0  0  0  0  0  0  0  0
   -2.4790   -0.5515   -0.0001 Br  0  0  0  0  0  0  0  0  0  0  0  0
    2.9067   -0.5196   -0.0001 C   0  0  0  0  0  0  0  0  0  0  0  0
    3.9465    0.0894   -0.0002 O   0  0  0  0  0  0  0  0  0  0  0  0
    2.7655   -1.8538    0.0003 O   0  0  0  0  0  0  0  0  0  0  0  0
    3.6490   -2.2627    0.0003 H   0  0  0  0  0  0  0  0  0  0  0  0
  1  6  2  0  0  0  0
  2  1  1  0  0  0  0
  3 11  1  0  0  0  0
  3  2  2  0  0  0  0
  3  4  1  0  0  0  0
  4  5  2  0  0  0  0
  5  6  1  0  0  0  0
  6  9  1  0  0  0  0
  7  1  1  0  0  0  0
  8  4  1  0  0  0  0
 10  5  1  0  0  0  0
 11 13  1  0  0  0  0
 12 11  2  0  0  0  0
 13 14  1  0  0  0  0
M  RAD  1   2   2
M  END
