2-NO2-Ph+-UB3LYP-aug-cc-pVDZ-Singlet.log
 OpenBabel05291812263D
Gaussian home/ubuntu/g09/g09 #p Temperature=298.15 opt=(maxcycles=1024) SCF=(max
 13 13  0  0  0  0  0  0  0  0999 V2000
   -2.2122    0.4369    0.0001 C   0  0  0  0  0  0  0  0  0  0  0  0
   -1.2143    1.3590    0.0003 C   0  0  0  0  0  0  0  0  0  0  0  0
    0.1933    1.0166   -0.0002 C   0  0  0  0  0  0  0  0  0  0  0  0
    0.3629   -0.6823    0.0001 C   0  0  0  0  0  0  0  0  0  0  0  0
   -0.7798   -1.5575   -0.0001 C   0  0  0  0  0  0  0  0  0  0  0  0
   -2.0136   -1.0023   -0.0003 C   0  0  0  0  0  0  0  0  0  0  0  0
   -3.2404    0.8021    0.0005 H   0  0  0  0  0  0  0  0  0  0  0  0
   -1.4051    2.4333    0.0009 H   0  0  0  0  0  0  0  0  0  0  0  0
   -2.8921   -1.6460   -0.0006 H   0  0  0  0  0  0  0  0  0  0  0  0
   -0.6056   -2.6325   -0.0003 H   0  0  0  0  0  0  0  0  0  0  0  0
    1.5953   -0.8624    0.0004 N   0  0  0  0  0  0  0  0  0  0  0  0
    1.1847    1.6684   -0.0004 O   0  0  0  0  0  0  0  0  0  0  0  0
    2.6851   -0.4612    0.0000 O   0  0  0  0  0  0  0  0  0  0  0  0
  1  2  2  0  0  0  0
  1  7  1  0  0  0  0
  2  8  1  0  0  0  0
  3  4  1  0  0  0  0
  3  2  1  0  0  0  0
  4 11  2  0  0  0  0
  5  4  1  0  0  0  0
  6  5  2  0  0  0  0
  6  1  1  0  0  0  0
  9  6  1  0  0  0  0
 10  5  1  0  0  0  0
 12  3  2  0  0  0  0
 13 11  1  0  0  0  0
M  RAD  1  13   2
M  END
