20
Coordinates from ORCA-job p-NO2-Ph-N2-BF4-B3LYPG-6-31G_dp-scan-d09-49-n400
  C   -0.75394494055921      0.65514015613044      1.39033035196632
  C   0.62567979601028      0.20872794201563      1.11840761162939
  C   1.21883366330929      0.41779383918033     -0.21516939417371
  C   0.30619617838373      0.68936665303844     -1.25469359776201
  C   -1.02781486682748      0.95300047963835     -1.00550311525778
  C   -1.54438064813211      0.93168409811845      0.32370653471782
  H   -1.12863883062997      0.68274301638759      2.40733501255362
  H   0.48005180713887     -0.89920738006957      0.94019447195217
  H   0.70497846189925      0.74946401912133     -2.26183627650887
  H   -1.71571829546674      1.20353642624190     -1.80662992085211
  N   -2.96192499298829      1.29882663328908      0.54418349216031
  O   -3.37499864298300      1.26433591986042      1.69722251294342
  O   -3.61226796798668      1.60964860670410     -0.44859012902932
  N   0.94872712102998      3.29014101211705      2.35929050848933
  N   1.34389878845663      4.10464091150069      2.99281857344341
  B   2.81190748352311     -0.00094771681494     -0.52648192623437
  F   2.80887317785584     -1.35355219936318     -0.15508428314092
  F   3.00317683288326      0.17263583102003     -1.89178309162713
  F   3.65457665310448      0.77392573197407      0.24016453466789
  F   1.45578922197870      0.36679601990976      2.18501813006255
