20
Coordinates from ORCA-job p-NO2-Ph-N2-BF4-B3LYPG-6-31G_dp-scan-d09-49-n400
  C   -0.75973248753500      0.62505877491341      1.40566741717898
  C   0.62194862223396      0.18651228008269      1.13229424906238
  C   1.22460051738164      0.42950955428248     -0.19144850031588
  C   0.31945982871969      0.73095377347812     -1.22947828040967
  C   -1.01622002993699      0.98811512145397     -0.98288906885360
  C   -1.54266964897062      0.93006759172659      0.34131740749467
  H   -1.14207456792325      0.62494544071733      2.42029459691270
  H   0.48035015686873     -0.91698627610909      0.92675859508844
  H   0.72523231399070      0.81761110656494     -2.23185098051439
  H   -1.69818845662800      1.26069615305134     -1.78185179886994
  N   -2.96185397827540      1.29093481872285      0.56117399819991
  O   -3.38344786777633      1.22547339362267      1.70978549191524
  O   -3.60501918227039      1.62835813784223     -0.42761757520193
  N   0.95633135584817      3.28476390872642      2.20274290521005
  N   1.30251591901948      4.11766724624796      2.84093730991830
  B   2.81385258576122     -0.00136234981363     -0.50859080614658
  F   2.77910647909538     -1.36704556209185     -0.18607223452712
  F   3.01588735565171      0.21614642369386     -1.86586787988878
  F   3.66898182016982      0.72566988948396      0.28891479289013
  F   1.44393926457542      0.32161057340370      2.20868036085708
