20
Coordinates from ORCA-job p-NO2-Ph-N2-BF4-B3LYPG-6-31G_dp-scan-d09-49-n400
  C   -0.92237134237614      0.50559047013724      1.41841336785698
  C   0.48841882991060      0.14092407263985      1.18508977330669
  C   1.14309935545945      0.51464878462871     -0.08093069263912
  C   0.27816601570683      0.84560080060128     -1.14408473782732
  C   -1.07831377233733      1.02665052214283     -0.95028850344379
  C   -1.66461599901046      0.85581693556758      0.33908049905133
  H   -1.35342058620875      0.41511682912870      2.40939632430540
  H   0.39903376413365     -0.94761678998147      0.88868574549629
  H   0.72873381954739      1.02411146256383     -2.11458676063144
  H   -1.73281449019320      1.32521378497865     -1.76278012091033
  N   -3.10792179613710      1.14165770954313      0.50939272427359
  O   -3.58221578590516      0.97535225027445      1.62658762373577
  O   -3.71584750692048      1.52275547584109     -0.48580266698827
  N   1.50061425214422      3.11004472071074      1.86862406688865
  N   2.40487287263168      3.71972820399474      2.04431720011461
  B   2.78092637584902      0.24891852819530     -0.31271415823679
  F   2.89862120310478     -1.11426684491747     -0.02130814235991
  F   3.03981258201460      0.53189174140358     -1.64855259101283
  F   3.48770473524598      1.05890960179182      0.55496255991839
  F   1.25051747334035      0.21765174075540      2.30939848910208
