20
Coordinates from ORCA-job p-NO2-Ph-N2-BF4-B3LYPG-6-31G_dp-scan-d09-49-n400
  C   -0.91060263913444      0.50271517865535      1.42209426168500
  C   0.49861432139247      0.13441368296616      1.18561602432134
  C   1.15272025076381      0.50828812269238     -0.08076962603292
  C   0.28726572902548      0.84814468156836     -1.14114910113373
  C   -1.06783876392496      1.03368152830315     -0.94448545972395
  C   -1.65304564465611      0.85972200038411      0.34529761332753
  H   -1.34060720616368      0.41027401694922      2.41335400971714
  H   0.40811287568232     -0.95372270739395      0.88923546590877
  H   0.73685725997114      1.02883947485420     -2.11170114453704
  H   -1.72248614720085      1.33803000859285     -1.75469376499659
  N   -3.09496586645452      1.15030303324533      0.51869643176949
  O   -3.56812486705640      0.98299716715579      1.63628541002347
  O   -3.70317550678566      1.53665617077726     -0.47433716369414
  N   1.51447030414929      3.11948438076464      1.78162255263229
  N   2.24161109260512      3.87764294704622      2.12370834568463
  B   2.78289352513402      0.20995950377418     -0.32401869608206
  F   2.84892604054383     -1.16934721943486     -0.08715347346743
  F   3.05080154094088      0.53488724629763     -1.64816666060502
  F   3.51965236822834      0.95474549638339      0.57394380763113
  F   1.26192133293985      0.21098528641857      2.30952116757211
