20
Coordinates from ORCA-job p-NO2-Ph-N2-BF4-B3LYPG-6-31G_dp-scan-d09-49-n400
  C   -0.92881368115802      0.50478128557870      1.41883722122761
  C   0.48366591670697      0.14499160820931      1.18799274334854
  C   1.13970039384934      0.52188599127553     -0.07642558742762
  C   0.27572483802364      0.85003983741816     -1.14119523285906
  C   -1.08173573372442      1.02651848977725     -0.94990849618906
  C   -1.67002742917822      0.85320278061391      0.33822230593754
  H   -1.36151468385978      0.41218828879336      2.40890556158303
  H   0.39856801089455     -0.94364496464935      0.89074505174839
  H   0.72751141456134      1.03040106531926     -2.11078466221648
  H   -1.73563051071852      1.32329163632027     -1.76354853735395
  N   -3.11463264284795      1.13415730063882      0.50578556934947
  O   -3.59060686584968      0.96549863688291      1.62190117630007
  O   -3.72182732586342      1.51368774056304     -0.49044322127734
  N   1.51813878510616      3.10565976608391      1.85240645025930
  N   2.45774900451727      3.66210220795007      2.01875316262977
  B   2.77941814415206      0.26354250866475     -0.30465683119624
  F   2.90461709197092     -1.09763343773262     -0.00821897689127
  F   3.03903037535753      0.54356898426852     -1.64089751335430
  F   3.48045946706409      1.08096533388479      0.56145642170798
  F   1.24320543099607      0.22349494013940      2.31397339467362
