20
Coordinates from ORCA-job p-NO2-Ph-N2-BF4-B3LYPG-6-31G_dp-scan-d09-49-n400
  C   -0.93375544462502      0.47956834239424      1.42316272101218
  C   0.47745431026383      0.11447566124209      1.19027442377381
  C   1.13955069551042      0.51116933286458     -0.06458090398876
  C   0.28121078158476      0.86309086691968     -1.12690106473606
  C   -1.07545003485075      1.04359192563801     -0.93700110858623
  C   -1.66891031392654      0.85200304017607      0.34665125808149
  H   -1.37056183290900      0.37137149553066      2.40984508174787
  H   0.38663163055617     -0.96862345436239      0.87543121995156
  H   0.73748691991223      1.05966452269033     -2.09121719310729
  H   -1.72515094945869      1.35806415495508     -1.74732576119919
  N   -3.11220807666404      1.13938781610098      0.51444610374576
  O   -3.59242725041090      0.95729175022934      1.62666898787382
  O   -3.71428657382210      1.53788660344495     -0.47750925927262
  N   1.60520919311855      3.06818908118721      1.70489451181342
  N   2.37191381871253      3.81168640084518      1.98700083195043
  B   2.77898943544823      0.25245276775808     -0.28760941268330
  F   2.89675402247041     -1.11838322910000     -0.03665407584961
  F   3.05354786595235      0.57763136409575     -1.61052418997212
  F   3.47350133913366      1.03695689337006      0.61406721934813
  F   1.23350046400383      0.17122466402010      2.31978061009671
