20
Coordinates from ORCA-job p-NO2-Ph-N2-BF4-B3LYPG-6-31G_dp-scan-d09-49-n400
  C   -0.75644200380217      0.65393169408659      1.38970175732681
  C   0.62270526860428      0.20573059721137      1.11783379976154
  C   1.21628202248466      0.41515477110656     -0.21538086861890
  C   0.30411058301769      0.68670664972165     -1.25536870793471
  C   -1.02974525337182      0.95117058904742     -1.00637972759880
  C   -1.54637412445134      0.93116511693250      0.32291582622468
  H   -1.13117232578500      0.68229219919153      2.40667946566495
  H   0.47522368506353     -0.90201255240085      0.93990743500048
  H   0.70341478225874      0.74677353107879     -2.26232714997278
  H   -1.71744791351846      1.20173640692928     -1.80766854538432
  N   -2.96342643294744      1.30034980095853      0.54308776265838
  O   -3.37661467054851      1.26698786373728      1.69611267861869
  O   -3.61330421860096      1.61145777379896     -0.44989526716807
  N   0.96136752334327      3.28376084787183      2.35660098460956
  N   1.35844428791986      4.09685333308387      2.99079896409674
  B   2.81199052265149      0.00453806128355     -0.52360327730856
  F   2.82173180546672     -1.34566077547712     -0.14596646136173
  F   3.00377377059091      0.17317860985728     -1.88940884348894
  F   3.64573895481963      0.79224592958004      0.24052244710900
  F   1.45274373680487      0.36233955240089      2.18473772776596
