21
Coordinates from ORCA-job Ph-N2-X-OTf-B3LYPG-6-31G_dp-scan-d09-49-n400
  C   -1.05880909684564     -0.74558368205258     -4.47829700313552
  C   -0.27351642259170      0.35329295929514     -4.81509775997410
  C   -0.92129248801865      1.50205205291758     -5.28146753858158
  C   -2.31513192887030      1.60348345524166     -5.36976806011766
  C   -3.07583959291901      0.48605342809358     -5.04394475621278
  C   -2.44912381677980     -0.68547973619533     -4.60076225610729
  H   -0.55719563323454     -1.64154449132619     -4.12853712256209
  H   0.79960163377408      0.29792589917616     -4.66776606900515
  H   -2.77151335970045      2.52575858758178     -5.71164070614769
  H   -4.15682310942858      0.52903469814724     -5.12944503711700
  N   -0.15585247403715      2.63868109379444     -5.62534212192355
  N   0.85624529027247      2.91876312562839     -6.12640481906123
  S   1.96836663716262      1.30671220980985     -7.39567326229406
  C   3.15022535731230      0.10235940452222     -6.46580129453585
  O   2.94607162189950      2.14108360588263     -8.12198912595766
  O   2.29396472870495     -1.29548281163607     -4.41675991545630
  O   1.04184288993589      0.41274606986474     -8.12618057844423
  F   4.07757021305028     -0.42812363127684     -7.23088178650571
  F   3.67186498989075      0.66518523478562     -5.40436375317989
  F   2.34239156040540     -1.03005793494465     -6.01832776055896
  H   -3.05134699998239     -1.55005953730941     -4.33884927312169
