21
Coordinates from ORCA-job Ph-N2-X-OTf-B3LYPG-6-31G_dp-scan-d09-49-n400
  C   -2.03898995728928     -1.03507985790406     -5.24090180237264
  C   -0.81155412716426     -0.53517308157095     -4.80570995663469
  C   -0.63633050330057      0.85249763836953     -4.69491294420543
  C   -1.69807250468317      1.72725634154515     -4.96506700950208
  C   -2.91466420003600      1.21389563138453     -5.40231896345258
  C   -3.08741486441806     -0.16676541208937     -5.54511657108832
  H   -2.17366031062302     -2.10848335698876     -5.33350987037355
  H   -0.00645162847807     -1.21007205378605     -4.53676172276172
  H   -1.54875455725278      2.79440655409465     -4.83928708458332
  H   -3.73203603355415      1.89139151892779     -5.62918347686091
  N   0.55426802938007      1.41274645060885     -4.17762558867789
  N   1.66532613787170      1.13496055578754     -4.67991878968080
  S   1.82689189863041      0.14231302615624     -6.49568498572452
  C   3.54997923057568      0.82467127818594     -6.95762790168426
  O   0.90141076787429      0.70866566136690     -7.47734496088346
  O   2.77608388300631      1.41376612269151     -4.25702138040200
  O   1.99397146097054     -1.29758973852718     -6.28175510555245
  F   3.73394169625494      0.47419746728678     -8.23214240025978
  F   3.55295558312587      2.14768447766565     -6.85618074184200
  F   4.49527378350792      0.28425064315004     -6.20749092188833
  H   -4.04047378439837     -0.56273986635474     -5.88173782156935
