12
s-C6H4N2_UB3LYP-aug-cc-pVDZ-Opt
 C        -1.204298294436     -0.393443119551     -0.058424562032
 N        -2.592464403400     -0.529916056717     -0.105211680715
 N        -3.708695242763     -0.571342640684     -0.142983518521
 C        -0.795197615740      0.953385050420     -0.043807155527
 C         0.630319417021      1.011012784720      0.004111607024
 C         1.452607503020     -0.114072025439      0.031216461671
 C         0.920307074052     -1.429344103838      0.012524754884
 C        -0.447584020064     -1.598870245611     -0.033698082080
 H         1.113157391987      1.993126509879      0.021009991464
 H         2.538562555360      0.006103936022      0.067939923961
 H         1.582756003114     -2.294080428534      0.034259680384
 H        -0.914210368151     -2.584819660667     -0.050147420515
