17
Coordinates from ORCA-job p-CH3O-Ph-N2+-B3LYPG-aug-cc-pVDZ-scan-d09-49-n400
  C   -2.32479586632237     -0.20260127332921      0.27041797693766
  C   -0.96078741006388     -0.27971713274609     -0.15775886521730
  C   -0.50733778886519      0.96646961350916     -0.07556814280125
  C   -0.77712977374156      2.23322170716923      0.25055626509266
  C   -2.13666349846789      2.21407816702491      0.66077480214136
  C   -2.90215454992724      1.02178575378241      0.67399828540141
  H   -2.87584094985674     -1.14166070327367      0.25981065173865
  H   -0.46748791721064     -1.19586064893398     -0.47371842784898
  H   -0.15289444187786      3.12332219570037      0.22334958219585
  H   -2.58215839439958      3.16258379791726      0.96585684518163
  N   4.17518177798933      0.86947319835793     -1.51591598629022
  N   5.23023992094421      0.84989970209045     -1.84108016473358
  O   -4.16397893237256      1.16331822625124      1.08477412252614
  C   -5.02571007897296      0.00674257438223      1.14000828355069
  H   -5.98500290987109      0.38237443267042      1.50201614476382
  H   -4.62466124783206     -0.73447520927579      1.84480280744351
  H   -5.14831793915193     -0.42555440129683      0.13737581991800
