Coordinates from ORCA-job p-CH3O-Ph-N2-OTs-B3LYP-6-31G_dp-scan-d09-49-n400
 OpenBabel02051708043D

 35 34  0  0  0  0  0  0  0  0999 V2000
   -0.3945    0.1788   -2.8975 C   0  0  0  0  0  0  0  0  0  0  0  0
    0.6117    1.1597   -2.9144 C   0  0  0  0  0  0  0  0  0  0  0  0
    0.3043    2.1411   -2.0513 C   0  0  0  0  0  0  0  0  0  0  0  0
   -0.7017    2.4125   -1.1812 C   0  0  0  0  0  0  0  0  0  0  0  0
   -1.6750    1.3950   -1.2008 C   0  0  0  0  0  0  0  0  0  0  0  0
   -1.5197    0.2862   -2.0547 C   0  0  0  0  0  0  0  0  0  0  0  0
   -0.3028   -0.6863   -3.5469 H   0  0  0  0  0  0  0  0  0  0  0  0
    1.5182    1.1058   -3.5740 H   0  0  0  0  0  0  0  0  0  0  0  0
   -0.7719    3.2860   -0.5469 H   0  0  0  0  0  0  0  0  0  0  0  0
   -2.5333    1.4963   -0.5478 H   0  0  0  0  0  0  0  0  0  0  0  0
    1.6566    3.6852   -2.0195 N   0  0  0  0  0  0  0  0  0  0  0  0
    1.9515    4.7428   -1.8741 N   0  0  0  0  0  0  0  0  0  0  0  0
    5.6632    0.1154   -3.7975 C   0  0  0  0  0  0  0  0  0  0  0  0
    6.9522   -0.4053   -3.8777 C   0  0  0  0  0  0  0  0  0  0  0  0
    8.0474    0.4138   -4.1957 C   0  0  0  0  0  0  0  0  0  0  0  0
    7.8113    1.7722   -4.4415 C   0  0  0  0  0  0  0  0  0  0  0  0
    6.5242    2.3077   -4.3638 C   0  0  0  0  0  0  0  0  0  0  0  0
    5.4547    1.4754   -4.0388 C   0  0  0  0  0  0  0  0  0  0  0  0
    4.8188   -0.5262   -3.5682 H   0  0  0  0  0  0  0  0  0  0  0  0
    7.1137   -1.4657   -3.6957 H   0  0  0  0  0  0  0  0  0  0  0  0
    8.6444    2.4206   -4.7034 H   0  0  0  0  0  0  0  0  0  0  0  0
    6.3352    3.3562   -4.5676 H   0  0  0  0  0  0  0  0  0  0  0  0
    3.8019    2.1720   -3.9018 S   0  0  0  0  0  0  0  0  0  0  0  0
    3.5013    2.2037   -2.4255 O   0  0  0  0  0  0  0  0  0  0  0  0
    2.9001    1.1776   -4.5910 O   0  0  0  0  0  0  0  0  0  0  0  0
    3.8343    3.5080   -4.5295 O   0  0  0  0  0  0  0  0  0  0  0  0
    9.4459   -0.1560   -4.2526 C   0  0  0  0  0  0  0  0  0  0  0  0
    9.8867   -0.2263   -3.2497 H   0  0  0  0  0  0  0  0  0  0  0  0
    9.4508   -1.1650   -4.6782 H   0  0  0  0  0  0  0  0  0  0  0  0
   10.1089    0.4697   -4.8577 H   0  0  0  0  0  0  0  0  0  0  0  0
   -2.4034   -0.7349   -2.1397 O   0  0  0  0  0  0  0  0  0  0  0  0
   -3.5649   -0.7106   -1.3158 C   0  0  0  0  0  0  0  0  0  0  0  0
   -4.1153   -1.6220   -1.5518 H   0  0  0  0  0  0  0  0  0  0  0  0
   -4.1943    0.1606   -1.5370 H   0  0  0  0  0  0  0  0  0  0  0  0
   -3.3001   -0.7120   -0.2509 H   0  0  0  0  0  0  0  0  0  0  0  0
  1  6  1  0  0  0  0
  2  1  2  0  0  0  0
  2  3  1  0  0  0  0
  3  4  2  0  0  0  0
  4  9  1  0  0  0  0
  5  4  1  0  0  0  0
  5 10  1  0  0  0  0
  6  5  2  0  0  0  0
  7  1  1  0  0  0  0
  8  2  1  0  0  0  0
 11 12  3  0  0  0  0
 13 19  1  0  0  0  0
 14 13  1  0  0  0  0
 14 20  1  0  0  0  0
 15 14  2  0  0  0  0
 16 17  2  0  0  0  0
 16 15  1  0  0  0  0
 17 18  1  0  0  0  0
 18 23  1  0  0  0  0
 18 13  2  0  0  0  0
 21 16  1  0  0  0  0
 22 17  1  0  0  0  0
 23 24  1  0  0  0  0
 25 23  2  0  0  0  0
 26 23  2  0  0  0  0
 27 15  1  0  0  0  0
 27 28  1  0  0  0  0
 29 27  1  0  0  0  0
 30 27  1  0  0  0  0
 31  6  1  0  0  0  0
 31 32  1  0  0  0  0
 32 35  1  0  0  0  0
 33 32  1  0  0  0  0
 34 32  1  0  0  0  0
M  RAD  2   3   2  24   2
M  END
