Coordinates from ORCA-job p-CH3O-Ph-N2-OTs-B3LYP-6-31G_dp-scan-d09-49-n400
 OpenBabel02051708043D

 35 36  0  0  1  0  0  0  0  0999 V2000
    0.0824    0.5500   -3.3399 C   0  0  0  0  0  0  0  0  0  0  0  0
    0.8061    1.7756   -3.7255 C   0  0  1  0  0  0  0  0  0  0  0  0
    0.4749    2.8963   -2.8079 C   0  0  1  0  0  0  0  0  0  0  0  0
   -0.0699    2.7041   -1.5013 C   0  0  0  0  0  0  0  0  0  0  0  0
   -0.5163    1.4708   -1.1399 C   0  0  0  0  0  0  0  0  0  0  0  0
   -0.4724    0.3903   -2.1062 C   0  0  0  0  0  0  0  0  0  0  0  0
    0.0660   -0.2736   -4.0442 H   0  0  0  0  0  0  0  0  0  0  0  0
    0.6766    2.0268   -4.7797 H   0  0  0  0  0  0  0  0  0  0  0  0
   -0.1266    3.5472   -0.8201 H   0  0  0  0  0  0  0  0  0  0  0  0
   -0.9215    1.3139   -0.1492 H   0  0  0  0  0  0  0  0  0  0  0  0
    0.7998    4.1698   -3.1988 N   0  0  0  0  0  0  0  0  0  0  0  0
    1.0683    5.2200   -3.5307 N   0  0  0  0  0  0  0  0  0  0  0  0
    5.1783    0.0129   -4.6962 C   0  0  0  0  0  0  0  0  0  0  0  0
    6.4074   -0.5017   -4.2885 C   0  0  0  0  0  0  0  0  0  0  0  0
    7.2876    0.2576   -3.5036 C   0  0  0  0  0  0  0  0  0  0  0  0
    6.9096    1.5597   -3.1411 C   0  0  0  0  0  0  0  0  0  0  0  0
    5.6847    2.0916   -3.5377 C   0  0  0  0  0  0  0  0  0  0  0  0
    4.8264    1.3069   -4.3099 C   0  0  0  0  0  0  0  0  0  0  0  0
    4.5040   -0.5680   -5.3166 H   0  0  0  0  0  0  0  0  0  0  0  0
    6.6915   -1.5060   -4.5906 H   0  0  0  0  0  0  0  0  0  0  0  0
    7.5876    2.1678   -2.5470 H   0  0  0  0  0  0  0  0  0  0  0  0
    5.3984    3.1031   -3.2718 H   0  0  0  0  0  0  0  0  0  0  0  0
    3.2585    1.9764   -4.8323 S   0  0  0  0  0  0  0  0  0  0  0  0
    2.3361    1.4500   -3.6047 O   0  0  0  0  0  0  0  0  0  0  0  0
    2.8315    1.3177   -6.0716 O   0  0  0  0  0  0  0  0  0  0  0  0
    3.3156    3.4442   -4.7917 O   0  0  0  0  0  0  0  0  0  0  0  0
    8.6064   -0.3171   -3.0440 C   0  0  0  0  0  0  0  0  0  0  0  0
    8.5267   -0.7116   -2.0233 H   0  0  0  0  0  0  0  0  0  0  0  0
    8.9320   -1.1392   -3.6879 H   0  0  0  0  0  0  0  0  0  0  0  0
    9.3935    0.4437   -3.0363 H   0  0  0  0  0  0  0  0  0  0  0  0
   -1.0162   -0.8329   -1.8370 O   0  0  0  0  0  0  0  0  0  0  0  0
   -1.7656   -1.0220   -0.6451 C   0  0  0  0  0  0  0  0  0  0  0  0
   -2.1489   -2.0425   -0.6963 H   0  0  0  0  0  0  0  0  0  0  0  0
   -2.6108   -0.3258   -0.5758 H   0  0  0  0  0  0  0  0  0  0  0  0
   -1.1415   -0.9241    0.2523 H   0  0  0  0  0  0  0  0  0  0  0  0
  1  6  2  0  0  0  0
  2  8  1  6  0  0  0
  2 24  1  0  0  0  0
  2  1  1  0  0  0  0
  2  3  1  0  0  0  0
  3 11  1  1  0  0  0
  3  4  1  0  0  0  0
  4  5  2  0  0  0  0
  4  9  1  0  0  0  0
  5 10  1  0  0  0  0
  6 31  1  0  0  0  0
  6  5  1  0  0  0  0
  7  1  1  0  0  0  0
 12 11  1  0  0  0  0
 13 18  2  0  0  0  0
 13 14  1  0  0  0  0
 14 15  2  0  0  0  0
 15 16  1  0  0  0  0
 15 27  1  0  0  0  0
 16 21  1  0  0  0  0
 17 22  1  0  0  0  0
 17 16  2  0  0  0  0
 18 17  1  0  0  0  0
 19 13  1  0  0  0  0
 20 14  1  0  0  0  0
 23 26  2  0  0  0  0
 23 18  1  0  0  0  0
 23 24  1  0  0  0  0
 25 23  2  0  0  0  0
 27 30  1  0  0  0  0
 27 28  1  0  0  0  0
 29 27  1  0  0  0  0
 31 32  1  0  0  0  0
 32 34  1  0  0  0  0
 32 35  1  0  0  0  0
 33 32  1  0  0  0  0
M  RAD  3   3   2  11   2  12   3
M  END
