Coordinates from ORCA-job p-CH3O-Ph-N2-OTs-B3LYP-6-31G_dp-scan-d09-49-n400
 OpenBabel02051708043D

 35 35  0  0  0  0  0  0  0  0999 V2000
   -0.6116   -0.7018   -2.1824 C   0  0  0  0  0  0  0  0  0  0  0  0
    0.7418   -0.5920   -2.4730 C   0  0  0  0  0  0  0  0  0  0  0  0
    1.2912    0.6710   -2.7078 C   0  0  0  0  0  0  0  0  0  0  0  0
    0.5015    1.8144   -2.6636 C   0  0  0  0  0  0  0  0  0  0  0  0
   -0.8606    1.7061   -2.3714 C   0  0  0  0  0  0  0  0  0  0  0  0
   -1.4212    0.4449   -2.1297 C   0  0  0  0  0  0  0  0  0  0  0  0
   -1.0689   -1.6674   -1.9928 H   0  0  0  0  0  0  0  0  0  0  0  0
    1.3769   -1.4696   -2.5220 H   0  0  0  0  0  0  0  0  0  0  0  0
    0.9516    2.7817   -2.8570 H   0  0  0  0  0  0  0  0  0  0  0  0
   -1.4663    2.6041   -2.3389 H   0  0  0  0  0  0  0  0  0  0  0  0
    3.4981    1.9254   -0.0756 N   0  0  0  0  0  0  0  0  0  0  0  0
    4.2029    1.0759   -0.0172 N   0  0  0  0  0  0  0  0  0  0  0  0
    5.7193   -0.1722   -3.9255 C   0  0  0  0  0  0  0  0  0  0  0  0
    7.0766    0.0347   -3.6992 C   0  0  0  0  0  0  0  0  0  0  0  0
    7.6387    1.3199   -3.7755 C   0  0  0  0  0  0  0  0  0  0  0  0
    6.8028    2.3991   -4.0930 C   0  0  0  0  0  0  0  0  0  0  0  0
    5.4398    2.2136   -4.3219 C   0  0  0  0  0  0  0  0  0  0  0  0
    4.9119    0.9264   -4.2304 C   0  0  0  0  0  0  0  0  0  0  0  0
    5.2880   -1.1664   -3.8805 H   0  0  0  0  0  0  0  0  0  0  0  0
    7.7128   -0.8145   -3.4633 H   0  0  0  0  0  0  0  0  0  0  0  0
    7.2239    3.3981   -4.1675 H   0  0  0  0  0  0  0  0  0  0  0  0
    4.7946    3.0462   -4.5803 H   0  0  0  0  0  0  0  0  0  0  0  0
    3.1745    0.6756   -4.5274 S   0  0  0  0  0  0  0  0  0  0  0  0
    2.6739    0.7938   -2.9334 O   0  0  0  0  0  0  0  0  0  0  0  0
    2.9397   -0.6938   -4.9814 O   0  0  0  0  0  0  0  0  0  0  0  0
    2.6267    1.8102   -5.2681 O   0  0  0  0  0  0  0  0  0  0  0  0
    9.1117    1.5251   -3.5155 C   0  0  0  0  0  0  0  0  0  0  0  0
    9.7205    0.8465   -4.1222 H   0  0  0  0  0  0  0  0  0  0  0  0
    9.4206    2.5492   -3.7408 H   0  0  0  0  0  0  0  0  0  0  0  0
    9.3566    1.3253   -2.4654 H   0  0  0  0  0  0  0  0  0  0  0  0
   -2.7347    0.2246   -1.8343 O   0  0  0  0  0  0  0  0  0  0  0  0
   -3.6093    1.3407   -1.7842 C   0  0  0  0  0  0  0  0  0  0  0  0
   -4.5955    0.9403   -1.5432 H   0  0  0  0  0  0  0  0  0  0  0  0
   -3.6573    1.8612   -2.7498 H   0  0  0  0  0  0  0  0  0  0  0  0
   -3.3109    2.0554   -1.0058 H   0  0  0  0  0  0  0  0  0  0  0  0
  1  6  1  0  0  0  0
  1  7  1  0  0  0  0
  2  1  2  0  0  0  0
  3  4  2  0  0  0  0
  3  2  1  0  0  0  0
  4  5  1  0  0  0  0
  5 10  1  0  0  0  0
  5  6  2  0  0  0  0
  6 31  1  0  0  0  0
  8  2  1  0  0  0  0
  9  4  1  0  0  0  0
 11 12  3  0  0  0  0
 13 19  1  0  0  0  0
 13 14  2  0  0  0  0
 14 20  1  0  0  0  0
 15 14  1  0  0  0  0
 15 27  1  0  0  0  0
 16 15  2  0  0  0  0
 17 18  2  0  0  0  0
 17 16  1  0  0  0  0
 18 13  1  0  0  0  0
 21 16  1  0  0  0  0
 22 17  1  0  0  0  0
 23 18  1  0  0  0  0
 23 24  1  0  0  0  0
 24  3  1  0  0  0  0
 25 23  2  0  0  0  0
 26 23  2  0  0  0  0
 27 30  1  0  0  0  0
 28 27  1  0  0  0  0
 29 27  1  0  0  0  0
 31 32  1  0  0  0  0
 32 33  1  0  0  0  0
 32 35  1  0  0  0  0
 34 32  1  0  0  0  0
M  END
