Coordinates from ORCA-job p-CH3O-Ph-N2-OTs-B3LYP-6-31G_dp-scan-d09-49-n400
 OpenBabel02051708043D

 35 34  0  0  0  0  0  0  0  0999 V2000
   -0.6048   -0.1475   -2.7839 C   0  0  0  0  0  0  0  0  0  0  0  0
    0.4763    0.6178   -2.3392 C   0  0  0  0  0  0  0  0  0  0  0  0
    0.2416    1.5823   -1.5638 C   0  0  0  0  0  0  0  0  0  0  0  0
   -0.8666    2.1463   -0.9995 C   0  0  0  0  0  0  0  0  0  0  0  0
   -1.9893    1.3993   -1.4260 C   0  0  0  0  0  0  0  0  0  0  0  0
   -1.8640    0.2852   -2.2929 C   0  0  0  0  0  0  0  0  0  0  0  0
   -0.5508   -1.0008   -3.4519 H   0  0  0  0  0  0  0  0  0  0  0  0
    2.3610    0.4488   -2.9438 H   0  0  0  0  0  0  0  0  0  0  0  0
   -0.9271    3.0031   -0.3411 H   0  0  0  0  0  0  0  0  0  0  0  0
   -2.9653    1.7030   -1.0657 H   0  0  0  0  0  0  0  0  0  0  0  0
    2.2745    3.4435    0.0732 N   0  0  0  0  0  0  0  0  0  0  0  0
    3.3220    3.5345    0.4133 N   0  0  0  0  0  0  0  0  0  0  0  0
    6.4244    1.5047   -2.9119 C   0  0  0  0  0  0  0  0  0  0  0  0
    7.7671    1.1785   -3.0858 C   0  0  0  0  0  0  0  0  0  0  0  0
    8.2478    0.7157   -4.3207 C   0  0  0  0  0  0  0  0  0  0  0  0
    7.3467    0.5972   -5.3887 C   0  0  0  0  0  0  0  0  0  0  0  0
    5.9994    0.9194   -5.2346 C   0  0  0  0  0  0  0  0  0  0  0  0
    5.5503    1.3654   -3.9915 C   0  0  0  0  0  0  0  0  0  0  0  0
    6.0555    1.8780   -1.9626 H   0  0  0  0  0  0  0  0  0  0  0  0
    8.4553    1.2911   -2.2518 H   0  0  0  0  0  0  0  0  0  0  0  0
    7.7060    0.2537   -6.3553 H   0  0  0  0  0  0  0  0  0  0  0  0
    5.3044    0.8425   -6.0640 H   0  0  0  0  0  0  0  0  0  0  0  0
    3.8309    1.7898   -3.7857 S   0  0  0  0  0  0  0  0  0  0  0  0
    3.6900    2.7494   -2.6867 O   0  0  0  0  0  0  0  0  0  0  0  0
    3.2907    0.3387   -3.2755 O   0  0  0  0  0  0  0  0  0  0  0  0
    3.2484    2.0913   -5.0927 O   0  0  0  0  0  0  0  0  0  0  0  0
    9.7003    0.3382   -4.4887 C   0  0  0  0  0  0  0  0  0  0  0  0
   10.3538    0.9866   -3.8975 H   0  0  0  0  0  0  0  0  0  0  0  0
    9.8772   -0.6922   -4.1553 H   0  0  0  0  0  0  0  0  0  0  0  0
   10.0121    0.4011   -5.5352 H   0  0  0  0  0  0  0  0  0  0  0  0
   -2.9249   -0.4545   -2.7246 O   0  0  0  0  0  0  0  0  0  0  0  0
   -4.2339   -0.0800   -2.3221 C   0  0  0  0  0  0  0  0  0  0  0  0
   -4.9099   -0.7937   -2.7950 H   0  0  0  0  0  0  0  0  0  0  0  0
   -4.4854    0.9335   -2.6605 H   0  0  0  0  0  0  0  0  0  0  0  0
   -4.3535   -0.1381   -1.2320 H   0  0  0  0  0  0  0  0  0  0  0  0
  1  2  2  0  0  0  0
  1  6  1  0  0  0  0
  2  3  1  0  0  0  0
  3  4  2  0  0  0  0
  4  9  1  0  0  0  0
  5 10  1  0  0  0  0
  5  4  1  0  0  0  0
  6  5  2  0  0  0  0
  7  1  1  0  0  0  0
 11 12  3  0  0  0  0
 13 19  1  0  0  0  0
 14 13  1  0  0  0  0
 14 20  1  0  0  0  0
 15 14  2  0  0  0  0
 16 17  2  0  0  0  0
 16 15  1  0  0  0  0
 17 18  1  0  0  0  0
 18 23  1  0  0  0  0
 18 13  2  0  0  0  0
 21 16  1  0  0  0  0
 22 17  1  0  0  0  0
 23 25  1  0  0  0  0
 23 24  2  0  0  0  0
 25  8  1  0  0  0  0
 26 23  2  0  0  0  0
 27 15  1  0  0  0  0
 27 29  1  0  0  0  0
 27 28  1  0  0  0  0
 30 27  1  0  0  0  0
 31 32  1  0  0  0  0
 31  6  1  0  0  0  0
 32 35  1  0  0  0  0
 33 32  1  0  0  0  0
 34 32  1  0  0  0  0
M  RAD  2   2   2   3   2
M  END
