Coordinates from ORCA-job p-CH3O-Ph-N2-OTs-B3LYP-6-31G_dp-scan-d09-49-n400
 OpenBabel02051708043D

 35 35  0  0  0  0  0  0  0  0999 V2000
   -0.6435   -0.7270   -2.2045 C   0  0  0  0  0  0  0  0  0  0  0  0
    0.7111   -0.5969   -2.4807 C   0  0  0  0  0  0  0  0  0  0  0  0
    1.2451    0.6747   -2.7033 C   0  0  0  0  0  0  0  0  0  0  0  0
    0.4394    1.8069   -2.6619 C   0  0  0  0  0  0  0  0  0  0  0  0
   -0.9242    1.6781   -2.3846 C   0  0  0  0  0  0  0  0  0  0  0  0
   -1.4694    0.4080   -2.1545 C   0  0  0  0  0  0  0  0  0  0  0  0
   -1.0892   -1.6997   -2.0243 H   0  0  0  0  0  0  0  0  0  0  0  0
    1.3586   -1.4654   -2.5275 H   0  0  0  0  0  0  0  0  0  0  0  0
    0.8778    2.7813   -2.8467 H   0  0  0  0  0  0  0  0  0  0  0  0
   -1.5427    2.5674   -2.3546 H   0  0  0  0  0  0  0  0  0  0  0  0
    4.2352    2.2637   -0.1210 N   0  0  0  0  0  0  0  0  0  0  0  0
    4.7706    1.3161   -0.3146 N   0  0  0  0  0  0  0  0  0  0  0  0
    5.6641   -0.1647   -3.8965 C   0  0  0  0  0  0  0  0  0  0  0  0
    7.0242    0.0131   -3.6643 C   0  0  0  0  0  0  0  0  0  0  0  0
    7.6123    1.2873   -3.7294 C   0  0  0  0  0  0  0  0  0  0  0  0
    6.7990    2.3858   -4.0387 C   0  0  0  0  0  0  0  0  0  0  0  0
    5.4330    2.2296   -4.2728 C   0  0  0  0  0  0  0  0  0  0  0  0
    4.8796    0.9525   -4.1945 C   0  0  0  0  0  0  0  0  0  0  0  0
    5.2129   -1.1504   -3.8601 H   0  0  0  0  0  0  0  0  0  0  0  0
    7.6423   -0.8503   -3.4321 H   0  0  0  0  0  0  0  0  0  0  0  0
    7.2401    3.3769   -4.1021 H   0  0  0  0  0  0  0  0  0  0  0  0
    4.8048    3.0772   -4.5238 H   0  0  0  0  0  0  0  0  0  0  0  0
    3.1397    0.7372   -4.5055 S   0  0  0  0  0  0  0  0  0  0  0  0
    2.6290    0.8174   -2.9123 O   0  0  0  0  0  0  0  0  0  0  0  0
    2.8863   -0.6148   -4.9998 O   0  0  0  0  0  0  0  0  0  0  0  0
    2.6145    1.9009   -5.2173 O   0  0  0  0  0  0  0  0  0  0  0  0
    9.0907    1.4582   -3.4747 C   0  0  0  0  0  0  0  0  0  0  0  0
    9.6845    0.8676   -4.1812 H   0  0  0  0  0  0  0  0  0  0  0  0
    9.3966    2.5033   -3.5695 H   0  0  0  0  0  0  0  0  0  0  0  0
    9.3589    1.1185   -2.4676 H   0  0  0  0  0  0  0  0  0  0  0  0
   -2.7826    0.1679   -1.8736 O   0  0  0  0  0  0  0  0  0  0  0  0
   -3.6728    1.2717   -1.8245 C   0  0  0  0  0  0  0  0  0  0  0  0
   -4.6554    0.8566   -1.5941 H   0  0  0  0  0  0  0  0  0  0  0  0
   -3.7199    1.7970   -2.7877 H   0  0  0  0  0  0  0  0  0  0  0  0
   -3.3905    1.9860   -1.0398 H   0  0  0  0  0  0  0  0  0  0  0  0
  1  6  1  0  0  0  0
  1  7  1  0  0  0  0
  2  1  2  0  0  0  0
  3  4  2  0  0  0  0
  3  2  1  0  0  0  0
  4  5  1  0  0  0  0
  5 10  1  0  0  0  0
  5  6  2  0  0  0  0
  6 31  1  0  0  0  0
  8  2  1  0  0  0  0
  9  4  1  0  0  0  0
 12 11  3  0  0  0  0
 13 19  1  0  0  0  0
 13 14  2  0  0  0  0
 14 20  1  0  0  0  0
 15 14  1  0  0  0  0
 15 27  1  0  0  0  0
 16 15  2  0  0  0  0
 17 18  2  0  0  0  0
 17 16  1  0  0  0  0
 18 13  1  0  0  0  0
 21 16  1  0  0  0  0
 22 17  1  0  0  0  0
 23 18  1  0  0  0  0
 23 24  1  0  0  0  0
 24  3  1  0  0  0  0
 25 23  2  0  0  0  0
 26 23  2  0  0  0  0
 27 30  1  0  0  0  0
 28 27  1  0  0  0  0
 29 27  1  0  0  0  0
 31 32  1  0  0  0  0
 32 33  1  0  0  0  0
 32 35  1  0  0  0  0
 34 32  1  0  0  0  0
M  END
