Coordinates from ORCA-job p-CH3O-Ph-N2-OTs-B3LYP-6-31G_dp-scan-d09-49-n400
 OpenBabel02051708043D

 35 34  0  0  0  0  0  0  0  0999 V2000
   -0.2641    0.3697   -3.1022 C   0  0  0  0  0  0  0  0  0  0  0  0
    0.6539    1.4340   -3.0124 C   0  0  0  0  0  0  0  0  0  0  0  0
    0.2776    2.2504   -2.0285 C   0  0  0  0  0  0  0  0  0  0  0  0
   -0.7085    2.3343   -1.1028 C   0  0  0  0  0  0  0  0  0  0  0  0
   -1.5906    1.2424   -1.2351 C   0  0  0  0  0  0  0  0  0  0  0  0
   -1.3670    0.2691   -2.2286 C   0  0  0  0  0  0  0  0  0  0  0  0
   -0.1149   -0.3977   -3.8557 H   0  0  0  0  0  0  0  0  0  0  0  0
    1.5745    1.5419   -3.6850 H   0  0  0  0  0  0  0  0  0  0  0  0
   -0.8288    3.1108   -0.3595 H   0  0  0  0  0  0  0  0  0  0  0  0
   -2.4325    1.1832   -0.5564 H   0  0  0  0  0  0  0  0  0  0  0  0
    1.5029    3.9488   -1.8372 N   0  0  0  0  0  0  0  0  0  0  0  0
    1.8684    4.9855   -1.7249 N   0  0  0  0  0  0  0  0  0  0  0  0
    5.7139    0.5018   -3.0729 C   0  0  0  0  0  0  0  0  0  0  0  0
    6.9101   -0.1826   -3.2721 C   0  0  0  0  0  0  0  0  0  0  0  0
    7.8574    0.2683   -4.2055 C   0  0  0  0  0  0  0  0  0  0  0  0
    7.5726    1.4315   -4.9310 C   0  0  0  0  0  0  0  0  0  0  0  0
    6.3772    2.1276   -4.7412 C   0  0  0  0  0  0  0  0  0  0  0  0
    5.4499    1.6568   -3.8134 C   0  0  0  0  0  0  0  0  0  0  0  0
    4.9911    0.1623   -2.3380 H   0  0  0  0  0  0  0  0  0  0  0  0
    7.1154   -1.0800   -2.6923 H   0  0  0  0  0  0  0  0  0  0  0  0
    8.2980    1.8012   -5.6524 H   0  0  0  0  0  0  0  0  0  0  0  0
    6.1638    3.0371   -5.2927 H   0  0  0  0  0  0  0  0  0  0  0  0
    3.8872    2.5209   -3.6044 S   0  0  0  0  0  0  0  0  0  0  0  0
    3.4952    2.3347   -2.1742 O   0  0  0  0  0  0  0  0  0  0  0  0
    2.9146    1.7832   -4.5137 O   0  0  0  0  0  0  0  0  0  0  0  0
    4.1071    3.9210   -4.0173 O   0  0  0  0  0  0  0  0  0  0  0  0
    9.1541   -0.4814   -4.4065 C   0  0  0  0  0  0  0  0  0  0  0  0
    9.7628   -0.4777   -3.4936 H   0  0  0  0  0  0  0  0  0  0  0  0
    8.9728   -1.5310   -4.6661 H   0  0  0  0  0  0  0  0  0  0  0  0
    9.7522   -0.0367   -5.2072 H   0  0  0  0  0  0  0  0  0  0  0  0
   -2.1614   -0.8094   -2.4255 O   0  0  0  0  0  0  0  0  0  0  0  0
   -3.2897   -0.9967   -1.5779 C   0  0  0  0  0  0  0  0  0  0  0  0
   -3.7657   -1.9175   -1.9157 H   0  0  0  0  0  0  0  0  0  0  0  0
   -4.0010   -0.1659   -1.6693 H   0  0  0  0  0  0  0  0  0  0  0  0
   -2.9880   -1.1085   -0.5290 H   0  0  0  0  0  0  0  0  0  0  0  0
  1  2  2  0  0  0  0
  1  6  1  0  0  0  0
  2  3  1  0  0  0  0
  3  4  2  0  0  0  0
  4  9  1  0  0  0  0
  5  4  1  0  0  0  0
  5 10  1  0  0  0  0
  6  5  2  0  0  0  0
  7  1  1  0  0  0  0
  8  2  1  0  0  0  0
 11 12  3  0  0  0  0
 13 19  1  0  0  0  0
 14 13  1  0  0  0  0
 14 20  1  0  0  0  0
 15 14  2  0  0  0  0
 16 17  2  0  0  0  0
 16 15  1  0  0  0  0
 17 18  1  0  0  0  0
 18 23  1  0  0  0  0
 18 13  2  0  0  0  0
 21 16  1  0  0  0  0
 22 17  1  0  0  0  0
 23 24  1  0  0  0  0
 25 23  2  0  0  0  0
 26 23  2  0  0  0  0
 27 15  1  0  0  0  0
 27 28  1  0  0  0  0
 29 27  1  0  0  0  0
 30 27  1  0  0  0  0
 31  6  1  0  0  0  0
 31 32  1  0  0  0  0
 32 35  1  0  0  0  0
 33 32  1  0  0  0  0
 34 32  1  0  0  0  0
M  RAD  2   3   2  24   2
M  END
