Coordinates from ORCA-job p-CH3O-Ph-N2-OTs-B3LYP-6-31G_dp-scan-d09-49-n400
 OpenBabel02051708043D

 35 35  0  0  0  0  0  0  0  0999 V2000
   -0.6631   -0.7321   -2.1882 C   0  0  0  0  0  0  0  0  0  0  0  0
    0.6904   -0.5966   -2.4670 C   0  0  0  0  0  0  0  0  0  0  0  0
    1.2141    0.6740   -2.7175 C   0  0  0  0  0  0  0  0  0  0  0  0
    0.3991    1.8000   -2.7017 C   0  0  0  0  0  0  0  0  0  0  0  0
   -0.9637    1.6658   -2.4228 C   0  0  0  0  0  0  0  0  0  0  0  0
   -1.4986    0.3969   -2.1642 C   0  0  0  0  0  0  0  0  0  0  0  0
   -1.1006   -1.7043   -1.9864 H   0  0  0  0  0  0  0  0  0  0  0  0
    1.3454   -1.4604   -2.4942 H   0  0  0  0  0  0  0  0  0  0  0  0
    0.8290    2.7738   -2.9088 H   0  0  0  0  0  0  0  0  0  0  0  0
   -1.5894    2.5505   -2.4134 H   0  0  0  0  0  0  0  0  0  0  0  0
    4.8343    2.3463   -0.1191 N   0  0  0  0  0  0  0  0  0  0  0  0
    5.2519    1.3514   -0.3592 N   0  0  0  0  0  0  0  0  0  0  0  0
    5.6268   -0.1613   -3.9019 C   0  0  0  0  0  0  0  0  0  0  0  0
    6.9843    0.0105   -3.6504 C   0  0  0  0  0  0  0  0  0  0  0  0
    7.5765    1.2836   -3.6950 C   0  0  0  0  0  0  0  0  0  0  0  0
    6.7698    2.3875   -4.0026 C   0  0  0  0  0  0  0  0  0  0  0  0
    5.4065    2.2374   -4.2554 C   0  0  0  0  0  0  0  0  0  0  0  0
    4.8489    0.9610   -4.1979 C   0  0  0  0  0  0  0  0  0  0  0  0
    5.1724   -1.1460   -3.8804 H   0  0  0  0  0  0  0  0  0  0  0  0
    7.5969   -0.8569   -3.4183 H   0  0  0  0  0  0  0  0  0  0  0  0
    7.2141    3.3781   -4.0492 H   0  0  0  0  0  0  0  0  0  0  0  0
    4.7833    3.0894   -4.5040 H   0  0  0  0  0  0  0  0  0  0  0  0
    3.1098    0.7553   -4.5191 S   0  0  0  0  0  0  0  0  0  0  0  0
    2.5978    0.8205   -2.9268 O   0  0  0  0  0  0  0  0  0  0  0  0
    2.8522   -0.5900   -5.0291 O   0  0  0  0  0  0  0  0  0  0  0  0
    2.5917    1.9288   -5.2200 O   0  0  0  0  0  0  0  0  0  0  0  0
    9.0531    1.4474   -3.4258 C   0  0  0  0  0  0  0  0  0  0  0  0
    9.6517    0.9150   -4.1739 H   0  0  0  0  0  0  0  0  0  0  0  0
    9.3508    2.4989   -3.4447 H   0  0  0  0  0  0  0  0  0  0  0  0
    9.3242    1.0364   -2.4467 H   0  0  0  0  0  0  0  0  0  0  0  0
   -2.8099    0.1523   -1.8786 O   0  0  0  0  0  0  0  0  0  0  0  0
   -3.7089    1.2498   -1.8531 C   0  0  0  0  0  0  0  0  0  0  0  0
   -4.6883    0.8318   -1.6144 H   0  0  0  0  0  0  0  0  0  0  0  0
   -3.7596    1.7544   -2.8269 H   0  0  0  0  0  0  0  0  0  0  0  0
   -3.4325    1.9824   -1.0834 H   0  0  0  0  0  0  0  0  0  0  0  0
  1  6  1  0  0  0  0
  1  7  1  0  0  0  0
  2  1  2  0  0  0  0
  3  4  2  0  0  0  0
  3  2  1  0  0  0  0
  4  5  1  0  0  0  0
  5 10  1  0  0  0  0
  5  6  2  0  0  0  0
  6 31  1  0  0  0  0
  8  2  1  0  0  0  0
  9  4  1  0  0  0  0
 12 11  3  0  0  0  0
 13 19  1  0  0  0  0
 13 14  2  0  0  0  0
 14 20  1  0  0  0  0
 15 14  1  0  0  0  0
 15 27  1  0  0  0  0
 16 15  2  0  0  0  0
 17 18  2  0  0  0  0
 17 16  1  0  0  0  0
 18 13  1  0  0  0  0
 21 16  1  0  0  0  0
 22 17  1  0  0  0  0
 23 18  1  0  0  0  0
 23 24  1  0  0  0  0
 24  3  1  0  0  0  0
 25 23  2  0  0  0  0
 26 23  2  0  0  0  0
 27 30  1  0  0  0  0
 28 27  1  0  0  0  0
 29 27  1  0  0  0  0
 31 32  1  0  0  0  0
 32 33  1  0  0  0  0
 32 35  1  0  0  0  0
 34 32  1  0  0  0  0
M  END
