Coordinates from ORCA-job p-CH3O-Ph-N2-OTs-B3LYP-6-31G_dp-scan-d09-49-n400
 OpenBabel02051708043D

 35 34  0  0  0  0  0  0  0  0999 V2000
   -0.4080    0.1597   -2.7325 C   0  0  0  0  0  0  0  0  0  0  0  0
    0.5979    0.9427   -2.1450 C   0  0  0  0  0  0  0  0  0  0  0  0
    0.1963    1.7705   -1.2723 C   0  0  0  0  0  0  0  0  0  0  0  0
   -0.9861    2.1549   -0.7143 C   0  0  0  0  0  0  0  0  0  0  0  0
   -2.0120    1.3767   -1.2947 C   0  0  0  0  0  0  0  0  0  0  0  0
   -1.7293    0.4011   -2.2815 C   0  0  0  0  0  0  0  0  0  0  0  0
   -0.2360   -0.5921   -3.4969 H   0  0  0  0  0  0  0  0  0  0  0  0
    2.3526    0.7275   -2.7502 H   0  0  0  0  0  0  0  0  0  0  0  0
   -1.1552    2.9124    0.0404 H   0  0  0  0  0  0  0  0  0  0  0  0
   -3.0294    1.5467   -0.9625 H   0  0  0  0  0  0  0  0  0  0  0  0
    1.8307    3.1113   -0.1281 N   0  0  0  0  0  0  0  0  0  0  0  0
    2.9004    3.2214    0.1289 N   0  0  0  0  0  0  0  0  0  0  0  0
    6.4755    1.6526   -2.9754 C   0  0  0  0  0  0  0  0  0  0  0  0
    7.7989    1.2604   -3.1658 C   0  0  0  0  0  0  0  0  0  0  0  0
    8.2063    0.6327   -4.3527 C   0  0  0  0  0  0  0  0  0  0  0  0
    7.2516    0.4159   -5.3575 C   0  0  0  0  0  0  0  0  0  0  0  0
    5.9239    0.8024   -5.1862 C   0  0  0  0  0  0  0  0  0  0  0  0
    5.5473    1.4135   -3.9896 C   0  0  0  0  0  0  0  0  0  0  0  0
    6.1629    2.1515   -2.0646 H   0  0  0  0  0  0  0  0  0  0  0  0
    8.5292    1.4511   -2.3834 H   0  0  0  0  0  0  0  0  0  0  0  0
    7.5539   -0.0553   -6.2893 H   0  0  0  0  0  0  0  0  0  0  0  0
    5.1887    0.6499   -5.9692 H   0  0  0  0  0  0  0  0  0  0  0  0
    3.8525    1.9227   -3.7632 S   0  0  0  0  0  0  0  0  0  0  0  0
    3.7965    2.9953   -2.7643 O   0  0  0  0  0  0  0  0  0  0  0  0
    3.2813    0.5585   -3.0925 O   0  0  0  0  0  0  0  0  0  0  0  0
    3.2310    2.1203   -5.0727 O   0  0  0  0  0  0  0  0  0  0  0  0
    9.6366    0.1846   -4.5372 C   0  0  0  0  0  0  0  0  0  0  0  0
   10.3315    0.8228   -3.9838 H   0  0  0  0  0  0  0  0  0  0  0  0
    9.7751   -0.8412   -4.1724 H   0  0  0  0  0  0  0  0  0  0  0  0
    9.9272    0.1962   -5.5919 H   0  0  0  0  0  0  0  0  0  0  0  0
   -2.6842   -0.3724   -2.8704 O   0  0  0  0  0  0  0  0  0  0  0  0
   -4.0418   -0.1894   -2.4991 C   0  0  0  0  0  0  0  0  0  0  0  0
   -4.6160   -0.8991   -3.0963 H   0  0  0  0  0  0  0  0  0  0  0  0
   -4.3871    0.8292   -2.7202 H   0  0  0  0  0  0  0  0  0  0  0  0
   -4.2023   -0.4031   -1.4339 H   0  0  0  0  0  0  0  0  0  0  0  0
  1  6  2  0  0  0  0
  1  2  1  0  0  0  0
  2  3  2  0  0  0  0
  3  4  1  0  0  0  0
  4  9  1  0  0  0  0
  5 10  1  0  0  0  0
  5  4  2  0  0  0  0
  6  5  1  0  0  0  0
  7  1  1  0  0  0  0
 11 12  3  0  0  0  0
 13 19  1  0  0  0  0
 14 13  1  0  0  0  0
 14 20  1  0  0  0  0
 15 14  2  0  0  0  0
 16 17  2  0  0  0  0
 16 15  1  0  0  0  0
 17 18  1  0  0  0  0
 18 23  1  0  0  0  0
 18 13  2  0  0  0  0
 21 16  1  0  0  0  0
 22 17  1  0  0  0  0
 23 25  1  0  0  0  0
 23 24  2  0  0  0  0
 25  8  1  0  0  0  0
 26 23  2  0  0  0  0
 27 15  1  0  0  0  0
 27 29  1  0  0  0  0
 27 28  1  0  0  0  0
 30 27  1  0  0  0  0
 31 32  1  0  0  0  0
 31  6  1  0  0  0  0
 32 35  1  0  0  0  0
 33 32  1  0  0  0  0
 34 32  1  0  0  0  0
M  RAD  2   2   2   3   2
M  END
