Coordinates from ORCA-job p-CH3O-Ph-N2-OTs-B3LYP-6-31G_dp-scan-d09-49-n400
 OpenBabel02051708043D

 35 35  0  0  0  0  0  0  0  0999 V2000
   -0.6566   -0.7311   -2.1992 C   0  0  0  0  0  0  0  0  0  0  0  0
    0.6978   -0.5957   -2.4738 C   0  0  0  0  0  0  0  0  0  0  0  0
    1.2248    0.6765   -2.7085 C   0  0  0  0  0  0  0  0  0  0  0  0
    0.4126    1.8042   -2.6809 C   0  0  0  0  0  0  0  0  0  0  0  0
   -0.9510    1.6702   -2.4056 C   0  0  0  0  0  0  0  0  0  0  0  0
   -1.4893    0.3995   -2.1632 C   0  0  0  0  0  0  0  0  0  0  0  0
   -1.0969   -1.7045   -2.0098 H   0  0  0  0  0  0  0  0  0  0  0  0
    1.3507   -1.4608   -2.5099 H   0  0  0  0  0  0  0  0  0  0  0  0
    0.8455    2.7792   -2.8754 H   0  0  0  0  0  0  0  0  0  0  0  0
   -1.5746    2.5562   -2.3867 H   0  0  0  0  0  0  0  0  0  0  0  0
    4.5971    2.3298   -0.1062 N   0  0  0  0  0  0  0  0  0  0  0  0
    5.0593    1.3521   -0.3351 N   0  0  0  0  0  0  0  0  0  0  0  0
    5.6411   -0.1616   -3.8934 C   0  0  0  0  0  0  0  0  0  0  0  0
    7.0007    0.0103   -3.6539 C   0  0  0  0  0  0  0  0  0  0  0  0
    7.5937    1.2825   -3.7116 C   0  0  0  0  0  0  0  0  0  0  0  0
    6.7857    2.3853   -4.0196 C   0  0  0  0  0  0  0  0  0  0  0  0
    5.4202    2.2349   -4.2606 C   0  0  0  0  0  0  0  0  0  0  0  0
    4.8619    0.9595   -4.1907 C   0  0  0  0  0  0  0  0  0  0  0  0
    5.1860   -1.1458   -3.8625 H   0  0  0  0  0  0  0  0  0  0  0  0
    7.6143   -0.8562   -3.4215 H   0  0  0  0  0  0  0  0  0  0  0  0
    7.2306    3.3751   -4.0764 H   0  0  0  0  0  0  0  0  0  0  0  0
    4.7960    3.0860   -4.5102 H   0  0  0  0  0  0  0  0  0  0  0  0
    3.1220    0.7517   -4.5070 S   0  0  0  0  0  0  0  0  0  0  0  0
    2.6088    0.8239   -2.9149 O   0  0  0  0  0  0  0  0  0  0  0  0
    2.8651   -0.5963   -5.0103 O   0  0  0  0  0  0  0  0  0  0  0  0
    2.6026    1.9215   -5.2131 O   0  0  0  0  0  0  0  0  0  0  0  0
    9.0725    1.4464   -3.4547 C   0  0  0  0  0  0  0  0  0  0  0  0
    9.6650    0.8974   -4.1955 H   0  0  0  0  0  0  0  0  0  0  0  0
    9.3736    2.4963   -3.4957 H   0  0  0  0  0  0  0  0  0  0  0  0
    9.3479    1.0539   -2.4692 H   0  0  0  0  0  0  0  0  0  0  0  0
   -2.8018    0.1548   -1.8828 O   0  0  0  0  0  0  0  0  0  0  0  0
   -3.6982    1.2540   -1.8463 C   0  0  0  0  0  0  0  0  0  0  0  0
   -4.6789    0.8356   -1.6138 H   0  0  0  0  0  0  0  0  0  0  0  0
   -3.7463    1.7696   -2.8145 H   0  0  0  0  0  0  0  0  0  0  0  0
   -3.4214    1.9774   -1.0680 H   0  0  0  0  0  0  0  0  0  0  0  0
  1  6  1  0  0  0  0
  1  7  1  0  0  0  0
  2  1  2  0  0  0  0
  3  4  2  0  0  0  0
  3  2  1  0  0  0  0
  4  5  1  0  0  0  0
  5 10  1  0  0  0  0
  5  6  2  0  0  0  0
  6 31  1  0  0  0  0
  8  2  1  0  0  0  0
  9  4  1  0  0  0  0
 12 11  3  0  0  0  0
 13 19  1  0  0  0  0
 13 14  2  0  0  0  0
 14 20  1  0  0  0  0
 15 14  1  0  0  0  0
 15 27  1  0  0  0  0
 16 15  2  0  0  0  0
 17 18  2  0  0  0  0
 17 16  1  0  0  0  0
 18 13  1  0  0  0  0
 21 16  1  0  0  0  0
 22 17  1  0  0  0  0
 23 18  1  0  0  0  0
 23 24  1  0  0  0  0
 24  3  1  0  0  0  0
 25 23  2  0  0  0  0
 26 23  2  0  0  0  0
 27 30  1  0  0  0  0
 28 27  1  0  0  0  0
 29 27  1  0  0  0  0
 31 32  1  0  0  0  0
 32 33  1  0  0  0  0
 32 35  1  0  0  0  0
 34 32  1  0  0  0  0
M  END
