Coordinates from ORCA-job p-CH3O-Ph-N2-OTs-B3LYP-6-31G_dp-scan-d09-49-n400
 OpenBabel02051708043D

 35 35  0  0  0  0  0  0  0  0999 V2000
   -0.6611   -0.7320   -2.1941 C   0  0  0  0  0  0  0  0  0  0  0  0
    0.6932   -0.5911   -2.4667 C   0  0  0  0  0  0  0  0  0  0  0  0
    1.2138    0.6825   -2.7084 C   0  0  0  0  0  0  0  0  0  0  0  0
    0.3954    1.8059   -2.6899 C   0  0  0  0  0  0  0  0  0  0  0  0
   -0.9680    1.6662   -2.4169 C   0  0  0  0  0  0  0  0  0  0  0  0
   -1.5000    0.3943   -2.1674 C   0  0  0  0  0  0  0  0  0  0  0  0
   -1.0965   -1.7066   -1.9993 H   0  0  0  0  0  0  0  0  0  0  0  0
    1.3508   -1.4527   -2.4958 H   0  0  0  0  0  0  0  0  0  0  0  0
    0.8235    2.7820   -2.8899 H   0  0  0  0  0  0  0  0  0  0  0  0
   -1.5965    2.5489   -2.4051 H   0  0  0  0  0  0  0  0  0  0  0  0
    4.7747    2.3570   -0.1027 N   0  0  0  0  0  0  0  0  0  0  0  0
    5.2018    1.3660   -0.3424 N   0  0  0  0  0  0  0  0  0  0  0  0
    5.6281   -0.1574   -3.8893 C   0  0  0  0  0  0  0  0  0  0  0  0
    6.9884    0.0082   -3.6494 C   0  0  0  0  0  0  0  0  0  0  0  0
    7.5869    1.2780   -3.7052 C   0  0  0  0  0  0  0  0  0  0  0  0
    6.7835    2.3848   -4.0107 C   0  0  0  0  0  0  0  0  0  0  0  0
    5.4174    2.2407   -4.2519 C   0  0  0  0  0  0  0  0  0  0  0  0
    4.8537    0.9675   -4.1847 C   0  0  0  0  0  0  0  0  0  0  0  0
    5.1689   -1.1397   -3.8602 H   0  0  0  0  0  0  0  0  0  0  0  0
    7.5983   -0.8613   -3.4185 H   0  0  0  0  0  0  0  0  0  0  0  0
    7.2326    3.3728   -4.0657 H   0  0  0  0  0  0  0  0  0  0  0  0
    4.7968    3.0949   -4.4999 H   0  0  0  0  0  0  0  0  0  0  0  0
    3.1132    0.7668   -4.5038 S   0  0  0  0  0  0  0  0  0  0  0  0
    2.5976    0.8354   -2.9125 O   0  0  0  0  0  0  0  0  0  0  0  0
    2.8526   -0.5786   -5.0120 O   0  0  0  0  0  0  0  0  0  0  0  0
    2.5992    1.9407   -5.2070 O   0  0  0  0  0  0  0  0  0  0  0  0
    9.0667    1.4350   -3.4497 C   0  0  0  0  0  0  0  0  0  0  0  0
    9.6559    0.8936   -4.1989 H   0  0  0  0  0  0  0  0  0  0  0  0
    9.3704    2.4845   -3.4788 H   0  0  0  0  0  0  0  0  0  0  0  0
    9.3436    1.0296   -2.4699 H   0  0  0  0  0  0  0  0  0  0  0  0
   -2.8117    0.1442   -1.8882 O   0  0  0  0  0  0  0  0  0  0  0  0
   -3.7141    1.2388   -1.8603 C   0  0  0  0  0  0  0  0  0  0  0  0
   -4.6931    0.8165   -1.6274 H   0  0  0  0  0  0  0  0  0  0  0  0
   -3.7630    1.7483   -2.8317 H   0  0  0  0  0  0  0  0  0  0  0  0
   -3.4428    1.9682   -1.0858 H   0  0  0  0  0  0  0  0  0  0  0  0
  1  6  1  0  0  0  0
  1  7  1  0  0  0  0
  2  1  2  0  0  0  0
  3  4  2  0  0  0  0
  3  2  1  0  0  0  0
  4  5  1  0  0  0  0
  5 10  1  0  0  0  0
  5  6  2  0  0  0  0
  6 31  1  0  0  0  0
  8  2  1  0  0  0  0
  9  4  1  0  0  0  0
 12 11  3  0  0  0  0
 13 19  1  0  0  0  0
 13 14  2  0  0  0  0
 14 20  1  0  0  0  0
 15 14  1  0  0  0  0
 15 27  1  0  0  0  0
 16 15  2  0  0  0  0
 17 18  2  0  0  0  0
 17 16  1  0  0  0  0
 18 13  1  0  0  0  0
 21 16  1  0  0  0  0
 22 17  1  0  0  0  0
 23 18  1  0  0  0  0
 23 24  1  0  0  0  0
 24  3  1  0  0  0  0
 25 23  2  0  0  0  0
 26 23  2  0  0  0  0
 27 30  1  0  0  0  0
 28 27  1  0  0  0  0
 29 27  1  0  0  0  0
 31 32  1  0  0  0  0
 32 33  1  0  0  0  0
 32 35  1  0  0  0  0
 34 32  1  0  0  0  0
M  END
