Coordinates from ORCA-job p-CH3O-Ph-N2-OTs-B3LYP-6-31G_dp-scan-d09-49-n400
 OpenBabel02051708043D

 35 34  0  0  0  0  0  0  0  0999 V2000
   -0.6388   -0.1934   -2.8035 C   0  0  0  0  0  0  0  0  0  0  0  0
    0.4469    0.5745   -2.3779 C   0  0  0  0  0  0  0  0  0  0  0  0
    0.2303    1.5564   -1.6206 C   0  0  0  0  0  0  0  0  0  0  0  0
   -0.8727    2.1369   -1.0606 C   0  0  0  0  0  0  0  0  0  0  0  0
   -2.0029    1.3903   -1.4667 C   0  0  0  0  0  0  0  0  0  0  0  0
   -1.8916    0.2588   -2.3129 C   0  0  0  0  0  0  0  0  0  0  0  0
   -0.5947   -1.0602   -3.4544 H   0  0  0  0  0  0  0  0  0  0  0  0
    2.3658    0.4150   -2.9382 H   0  0  0  0  0  0  0  0  0  0  0  0
   -0.9255    3.0068   -0.4187 H   0  0  0  0  0  0  0  0  0  0  0  0
   -2.9747    1.7083   -1.1072 H   0  0  0  0  0  0  0  0  0  0  0  0
    2.4131    3.6178    0.1319 N   0  0  0  0  0  0  0  0  0  0  0  0
    3.4602    3.6810    0.4795 N   0  0  0  0  0  0  0  0  0  0  0  0
    6.4373    1.4786   -2.8873 C   0  0  0  0  0  0  0  0  0  0  0  0
    7.7784    1.1557   -3.0791 C   0  0  0  0  0  0  0  0  0  0  0  0
    8.2486    0.7184   -4.3273 C   0  0  0  0  0  0  0  0  0  0  0  0
    7.3387    0.6223   -5.3900 C   0  0  0  0  0  0  0  0  0  0  0  0
    5.9928    0.9413   -5.2181 C   0  0  0  0  0  0  0  0  0  0  0  0
    5.5543    1.3615   -3.9624 C   0  0  0  0  0  0  0  0  0  0  0  0
    6.0764    1.8323   -1.9276 H   0  0  0  0  0  0  0  0  0  0  0  0
    8.4734    1.2506   -2.2485 H   0  0  0  0  0  0  0  0  0  0  0  0
    7.6899    0.2987   -6.3664 H   0  0  0  0  0  0  0  0  0  0  0  0
    5.2909    0.8814   -6.0430 H   0  0  0  0  0  0  0  0  0  0  0  0
    3.8367    1.7807   -3.7334 S   0  0  0  0  0  0  0  0  0  0  0  0
    3.7056    2.7184   -2.6148 O   0  0  0  0  0  0  0  0  0  0  0  0
    3.3033    0.3182   -3.2473 O   0  0  0  0  0  0  0  0  0  0  0  0
    3.2409    2.1068   -5.0284 O   0  0  0  0  0  0  0  0  0  0  0  0
    9.6996    0.3440   -4.5145 C   0  0  0  0  0  0  0  0  0  0  0  0
   10.3585    0.9843   -3.9207 H   0  0  0  0  0  0  0  0  0  0  0  0
    9.8799   -0.6909   -4.1972 H   0  0  0  0  0  0  0  0  0  0  0  0
   10.0013    0.4218   -5.5630 H   0  0  0  0  0  0  0  0  0  0  0  0
   -2.9608   -0.4808   -2.7240 O   0  0  0  0  0  0  0  0  0  0  0  0
   -4.2644   -0.0894   -2.3198 C   0  0  0  0  0  0  0  0  0  0  0  0
   -4.9486   -0.8066   -2.7754 H   0  0  0  0  0  0  0  0  0  0  0  0
   -4.5108    0.9196   -2.6748 H   0  0  0  0  0  0  0  0  0  0  0  0
   -4.3771   -0.1269   -1.2281 H   0  0  0  0  0  0  0  0  0  0  0  0
  1  2  2  0  0  0  0
  1  6  1  0  0  0  0
  2  3  1  0  0  0  0
  3  4  2  0  0  0  0
  4  9  1  0  0  0  0
  5 10  1  0  0  0  0
  5  4  1  0  0  0  0
  6  5  2  0  0  0  0
  7  1  1  0  0  0  0
 11 12  3  0  0  0  0
 13 19  1  0  0  0  0
 14 13  1  0  0  0  0
 14 20  1  0  0  0  0
 15 14  2  0  0  0  0
 16 17  2  0  0  0  0
 16 15  1  0  0  0  0
 17 18  1  0  0  0  0
 18 23  1  0  0  0  0
 18 13  2  0  0  0  0
 21 16  1  0  0  0  0
 22 17  1  0  0  0  0
 23 25  1  0  0  0  0
 23 24  2  0  0  0  0
 25  8  1  0  0  0  0
 26 23  2  0  0  0  0
 27 15  1  0  0  0  0
 27 29  1  0  0  0  0
 27 28  1  0  0  0  0
 30 27  1  0  0  0  0
 31 32  1  0  0  0  0
 31  6  1  0  0  0  0
 32 35  1  0  0  0  0
 33 32  1  0  0  0  0
 34 32  1  0  0  0  0
M  RAD  2   2   2   3   2
M  END
