Coordinates from ORCA-job p-CH3O-Ph-N2-OTs-B3LYP-6-31G_dp-scan-d09-49-n400
 OpenBabel02051708043D

 35 36  0  0  1  0  0  0  0  0999 V2000
    0.3284    0.3673   -3.2630 C   0  0  0  0  0  0  0  0  0  0  0  0
    0.9018    1.6020   -3.8466 C   0  0  1  0  0  0  0  0  0  0  0  0
    0.2244    2.9228   -3.2947 C   0  0  1  0  0  0  0  0  0  0  0  0
   -0.2128    2.7950   -1.8667 C   0  0  0  0  0  0  0  0  0  0  0  0
   -0.4220    1.6008   -1.2847 C   0  0  0  0  0  0  0  0  0  0  0  0
   -0.2350    0.3605   -2.0328 C   0  0  0  0  0  0  0  0  0  0  0  0
    0.4485   -0.5623   -3.8086 H   0  0  0  0  0  0  0  0  0  0  0  0
    0.8271    1.6310   -4.9376 H   0  0  0  0  0  0  0  0  0  0  0  0
   -0.3838    3.7334   -1.3462 H   0  0  0  0  0  0  0  0  0  0  0  0
   -0.7486    1.5647   -0.2522 H   0  0  0  0  0  0  0  0  0  0  0  0
    0.1405    3.6784   -3.8127 N   0  0  0  0  0  0  0  0  0  0  0  0
    0.0239    4.6495   -4.4762 N   0  0  0  0  0  0  0  0  0  0  0  0
    5.1780    0.3799   -4.8517 C   0  0  0  0  0  0  0  0  0  0  0  0
    6.3455   -0.3111   -4.5388 C   0  0  0  0  0  0  0  0  0  0  0  0
    7.1947    0.1257   -3.5101 C   0  0  0  0  0  0  0  0  0  0  0  0
    6.8501    1.2877   -2.8046 C   0  0  0  0  0  0  0  0  0  0  0  0
    5.6870    1.9950   -3.1030 C   0  0  0  0  0  0  0  0  0  0  0  0
    4.8583    1.5272   -4.1232 C   0  0  0  0  0  0  0  0  0  0  0  0
    4.5303    0.0511   -5.6577 H   0  0  0  0  0  0  0  0  0  0  0  0
    6.6052   -1.2013   -5.1058 H   0  0  0  0  0  0  0  0  0  0  0  0
    7.5044    1.6480   -2.0148 H   0  0  0  0  0  0  0  0  0  0  0  0
    5.4292    2.9032   -2.5691 H   0  0  0  0  0  0  0  0  0  0  0  0
    3.3712    2.4251   -4.5182 S   0  0  0  0  0  0  0  0  0  0  0  0
    2.3360    1.6266   -3.5001 O   0  0  0  0  0  0  0  0  0  0  0  0
    2.9642    2.1340   -5.8953 O   0  0  0  0  0  0  0  0  0  0  0  0
    3.5017    3.8057   -4.0576 O   0  0  0  0  0  0  0  0  0  0  0  0
    8.4419   -0.6500   -3.1614 C   0  0  0  0  0  0  0  0  0  0  0  0
    8.2147   -1.4573   -2.4536 H   0  0  0  0  0  0  0  0  0  0  0  0
    8.8870   -1.1109   -4.0483 H   0  0  0  0  0  0  0  0  0  0  0  0
    9.1957   -0.0090   -2.6949 H   0  0  0  0  0  0  0  0  0  0  0  0
   -0.6253   -0.8413   -1.5225 O   0  0  0  0  0  0  0  0  0  0  0  0
   -1.4605   -0.8812   -0.3708 C   0  0  0  0  0  0  0  0  0  0  0  0
   -1.7458   -1.9273   -0.2499 H   0  0  0  0  0  0  0  0  0  0  0  0
   -2.3659   -0.2758   -0.4993 H   0  0  0  0  0  0  0  0  0  0  0  0
   -0.9296   -0.5553    0.5325 H   0  0  0  0  0  0  0  0  0  0  0  0
  1  6  2  0  0  0  0
  2  8  1  6  0  0  0
  2 24  1  0  0  0  0
  2  3  1  0  0  0  0
  2  1  1  0  0  0  0
  3 11  1  1  0  0  0
  3  4  1  0  0  0  0
  4  9  1  0  0  0  0
  4  5  2  0  0  0  0
  5 10  1  0  0  0  0
  6 31  1  0  0  0  0
  6  5  1  0  0  0  0
  7  1  1  0  0  0  0
 12 11  1  0  0  0  0
 13 14  2  0  0  0  0
 13 18  1  0  0  0  0
 14 15  1  0  0  0  0
 15 27  1  0  0  0  0
 15 16  2  0  0  0  0
 16 21  1  0  0  0  0
 17 16  1  0  0  0  0
 17 22  1  0  0  0  0
 18 17  2  0  0  0  0
 19 13  1  0  0  0  0
 20 14  1  0  0  0  0
 23 18  1  0  0  0  0
 23 26  2  0  0  0  0
 23 24  1  0  0  0  0
 25 23  2  0  0  0  0
 27 30  1  0  0  0  0
 27 28  1  0  0  0  0
 29 27  1  0  0  0  0
 31 32  1  0  0  0  0
 32 33  1  0  0  0  0
 32 35  1  0  0  0  0
 34 32  1  0  0  0  0
M  RAD  3   3   2  11   2  12   3
M  END
