Coordinates from ORCA-job p-CH3O-Ph-N2-OTs-B3LYP-6-31G_dp-scan-d09-49-n400
 OpenBabel02051708043D

 35 35  0  0  0  0  0  0  0  0999 V2000
   -0.6586   -0.7326   -2.1977 C   0  0  0  0  0  0  0  0  0  0  0  0
    0.6960   -0.5907   -2.4679 C   0  0  0  0  0  0  0  0  0  0  0  0
    1.2170    0.6837   -2.7040 C   0  0  0  0  0  0  0  0  0  0  0  0
    0.3987    1.8072   -2.6822 C   0  0  0  0  0  0  0  0  0  0  0  0
   -0.9651    1.6665   -2.4115 C   0  0  0  0  0  0  0  0  0  0  0  0
   -1.4975    0.3936   -2.1676 C   0  0  0  0  0  0  0  0  0  0  0  0
   -1.0944   -1.7079   -2.0073 H   0  0  0  0  0  0  0  0  0  0  0  0
    1.3536   -1.4523   -2.4995 H   0  0  0  0  0  0  0  0  0  0  0  0
    0.8271    2.7840   -2.8776 H   0  0  0  0  0  0  0  0  0  0  0  0
   -1.5936    2.5492   -2.3970 H   0  0  0  0  0  0  0  0  0  0  0  0
    4.6931    2.3583   -0.0921 N   0  0  0  0  0  0  0  0  0  0  0  0
    5.1346    1.3729   -0.3284 N   0  0  0  0  0  0  0  0  0  0  0  0
    5.6315   -0.1559   -3.8838 C   0  0  0  0  0  0  0  0  0  0  0  0
    6.9932    0.0076   -3.6501 C   0  0  0  0  0  0  0  0  0  0  0  0
    7.5942    1.2758   -3.7125 C   0  0  0  0  0  0  0  0  0  0  0  0
    6.7918    2.3834   -4.0177 C   0  0  0  0  0  0  0  0  0  0  0  0
    5.4243    2.2416   -4.2527 C   0  0  0  0  0  0  0  0  0  0  0  0
    4.8582    0.9698   -4.1794 C   0  0  0  0  0  0  0  0  0  0  0  0
    5.1705   -1.1372   -3.8501 H   0  0  0  0  0  0  0  0  0  0  0  0
    7.6022   -0.8626   -3.4194 H   0  0  0  0  0  0  0  0  0  0  0  0
    7.2428    3.3703   -4.0779 H   0  0  0  0  0  0  0  0  0  0  0  0
    4.8046    3.0963   -4.5010 H   0  0  0  0  0  0  0  0  0  0  0  0
    3.1173    0.7709   -4.4975 S   0  0  0  0  0  0  0  0  0  0  0  0
    2.6007    0.8377   -2.9062 O   0  0  0  0  0  0  0  0  0  0  0  0
    2.8557   -0.5736   -5.0075 O   0  0  0  0  0  0  0  0  0  0  0  0
    2.6042    1.9461   -5.1991 O   0  0  0  0  0  0  0  0  0  0  0  0
    9.0754    1.4304   -3.4639 C   0  0  0  0  0  0  0  0  0  0  0  0
    9.6601    0.8807   -4.2105 H   0  0  0  0  0  0  0  0  0  0  0  0
    9.3822    2.4787   -3.5031 H   0  0  0  0  0  0  0  0  0  0  0  0
    9.3547    1.0327   -2.4816 H   0  0  0  0  0  0  0  0  0  0  0  0
   -2.8096    0.1425   -1.8912 O   0  0  0  0  0  0  0  0  0  0  0  0
   -3.7120    1.2370   -1.8602 C   0  0  0  0  0  0  0  0  0  0  0  0
   -4.6912    0.8140   -1.6299 H   0  0  0  0  0  0  0  0  0  0  0  0
   -3.7597    1.7502   -2.8297 H   0  0  0  0  0  0  0  0  0  0  0  0
   -3.4415    1.9636   -1.0826 H   0  0  0  0  0  0  0  0  0  0  0  0
  1  6  1  0  0  0  0
  1  7  1  0  0  0  0
  2  1  2  0  0  0  0
  3  4  2  0  0  0  0
  3  2  1  0  0  0  0
  4  5  1  0  0  0  0
  5 10  1  0  0  0  0
  5  6  2  0  0  0  0
  6 31  1  0  0  0  0
  8  2  1  0  0  0  0
  9  4  1  0  0  0  0
 12 11  3  0  0  0  0
 13 19  1  0  0  0  0
 13 14  2  0  0  0  0
 14 20  1  0  0  0  0
 15 14  1  0  0  0  0
 15 27  1  0  0  0  0
 16 15  2  0  0  0  0
 17 18  2  0  0  0  0
 17 16  1  0  0  0  0
 18 13  1  0  0  0  0
 21 16  1  0  0  0  0
 22 17  1  0  0  0  0
 23 18  1  0  0  0  0
 23 24  1  0  0  0  0
 24  3  1  0  0  0  0
 25 23  2  0  0  0  0
 26 23  2  0  0  0  0
 27 30  1  0  0  0  0
 28 27  1  0  0  0  0
 29 27  1  0  0  0  0
 31 32  1  0  0  0  0
 32 33  1  0  0  0  0
 32 35  1  0  0  0  0
 34 32  1  0  0  0  0
M  END
