Coordinates from ORCA-job p-CH3O-Ph-N2-OTs-B3LYP-6-31G_dp-scan-d09-49-n400
 OpenBabel02051708043D

 35 34  0  0  0  0  0  0  0  0999 V2000
   -0.6135   -0.1546   -2.7911 C   0  0  0  0  0  0  0  0  0  0  0  0
    0.4668    0.6129   -2.3494 C   0  0  0  0  0  0  0  0  0  0  0  0
    0.2360    1.5796   -1.5763 C   0  0  0  0  0  0  0  0  0  0  0  0
   -0.8726    2.1439   -1.0120 C   0  0  0  0  0  0  0  0  0  0  0  0
   -1.9957    1.3959   -1.4350 C   0  0  0  0  0  0  0  0  0  0  0  0
   -1.8719    0.2796   -2.2992 C   0  0  0  0  0  0  0  0  0  0  0  0
   -0.5602   -1.0098   -3.4567 H   0  0  0  0  0  0  0  0  0  0  0  0
    2.3637    0.4495   -2.9382 H   0  0  0  0  0  0  0  0  0  0  0  0
   -0.9332    3.0024   -0.3557 H   0  0  0  0  0  0  0  0  0  0  0  0
   -2.9713    1.7006   -1.0741 H   0  0  0  0  0  0  0  0  0  0  0  0
    2.3037    3.4807    0.0900 N   0  0  0  0  0  0  0  0  0  0  0  0
    3.3510    3.5666    0.4321 N   0  0  0  0  0  0  0  0  0  0  0  0
    6.4320    1.5035   -2.9069 C   0  0  0  0  0  0  0  0  0  0  0  0
    7.7737    1.1757   -3.0864 C   0  0  0  0  0  0  0  0  0  0  0  0
    8.2492    0.7142   -4.3237 C   0  0  0  0  0  0  0  0  0  0  0  0
    7.3439    0.5985   -5.3886 C   0  0  0  0  0  0  0  0  0  0  0  0
    5.9976    0.9222   -5.2290 C   0  0  0  0  0  0  0  0  0  0  0  0
    5.5538    1.3669   -3.9836 C   0  0  0  0  0  0  0  0  0  0  0  0
    6.0671    1.8758   -1.9558 H   0  0  0  0  0  0  0  0  0  0  0  0
    8.4651    1.2861   -2.2547 H   0  0  0  0  0  0  0  0  0  0  0  0
    7.6992    0.2560   -6.3570 H   0  0  0  0  0  0  0  0  0  0  0  0
    5.2995    0.8474   -6.0559 H   0  0  0  0  0  0  0  0  0  0  0  0
    3.8357    1.7931   -3.7707 S   0  0  0  0  0  0  0  0  0  0  0  0
    3.7004    2.7511   -2.6698 O   0  0  0  0  0  0  0  0  0  0  0  0
    3.2962    0.3415   -3.2609 O   0  0  0  0  0  0  0  0  0  0  0  0
    3.2481    2.0973   -5.0748 O   0  0  0  0  0  0  0  0  0  0  0  0
    9.7005    0.3350   -4.4975 C   0  0  0  0  0  0  0  0  0  0  0  0
   10.3570    0.9813   -3.9076 H   0  0  0  0  0  0  0  0  0  0  0  0
    9.8771   -0.6963   -4.1666 H   0  0  0  0  0  0  0  0  0  0  0  0
   10.0087    0.3993   -5.5451 H   0  0  0  0  0  0  0  0  0  0  0  0
   -2.9335   -0.4613   -2.7274 O   0  0  0  0  0  0  0  0  0  0  0  0
   -4.2418   -0.0862   -2.3232 C   0  0  0  0  0  0  0  0  0  0  0  0
   -4.9185   -0.8013   -2.7931 H   0  0  0  0  0  0  0  0  0  0  0  0
   -4.4943    0.9264   -2.6634 H   0  0  0  0  0  0  0  0  0  0  0  0
   -4.3592   -0.1418   -1.2327 H   0  0  0  0  0  0  0  0  0  0  0  0
  1  2  2  0  0  0  0
  1  6  1  0  0  0  0
  2  3  1  0  0  0  0
  3  4  2  0  0  0  0
  4  9  1  0  0  0  0
  5 10  1  0  0  0  0
  5  4  1  0  0  0  0
  6  5  2  0  0  0  0
  7  1  1  0  0  0  0
 11 12  3  0  0  0  0
 13 19  1  0  0  0  0
 14 13  1  0  0  0  0
 14 20  1  0  0  0  0
 15 14  2  0  0  0  0
 16 17  2  0  0  0  0
 16 15  1  0  0  0  0
 17 18  1  0  0  0  0
 18 23  1  0  0  0  0
 18 13  2  0  0  0  0
 21 16  1  0  0  0  0
 22 17  1  0  0  0  0
 23 25  1  0  0  0  0
 23 24  2  0  0  0  0
 25  8  1  0  0  0  0
 26 23  2  0  0  0  0
 27 15  1  0  0  0  0
 27 29  1  0  0  0  0
 27 28  1  0  0  0  0
 30 27  1  0  0  0  0
 31 32  1  0  0  0  0
 31  6  1  0  0  0  0
 32 35  1  0  0  0  0
 33 32  1  0  0  0  0
 34 32  1  0  0  0  0
M  RAD  2   2   2   3   2
M  END
