Coordinates from ORCA-job p-CH3O-Ph-N2-OTs-B3LYP-6-31G_dp-scan-d09-49-n400
 OpenBabel02051708043D

 35 36  0  0  1  0  0  0  0  0999 V2000
    0.0847    0.5599   -3.3433 C   0  0  0  0  0  0  0  0  0  0  0  0
    0.8156    1.7860   -3.7181 C   0  0  1  0  0  0  0  0  0  0  0  0
    0.4958    2.9108   -2.7912 C   0  0  0  0  0  0  0  0  0  0  0  0
   -0.0488    2.6975   -1.4822 C   0  0  0  0  0  0  0  0  0  0  0  0
   -0.5019    1.4645   -1.1345 C   0  0  0  0  0  0  0  0  0  0  0  0
   -0.4693    0.3919   -2.1118 C   0  0  0  0  0  0  0  0  0  0  0  0
    0.0635   -0.2564   -4.0561 H   0  0  0  0  0  0  0  0  0  0  0  0
    0.6772    2.0496   -4.7685 H   0  0  0  0  0  0  0  0  0  0  0  0
   -0.0974    3.5322   -0.7899 H   0  0  0  0  0  0  0  0  0  0  0  0
   -0.9047    1.2993   -0.1440 H   0  0  0  0  0  0  0  0  0  0  0  0
    0.8089    4.1492   -3.1652 N   0  0  0  0  0  0  0  0  0  0  0  0
    1.0763    5.2043   -3.4920 N   0  0  0  0  0  0  0  0  0  0  0  0
    5.1708   -0.0009   -4.6819 C   0  0  0  0  0  0  0  0  0  0  0  0
    6.4011   -0.5088   -4.2695 C   0  0  0  0  0  0  0  0  0  0  0  0
    7.2848    0.2639   -3.5017 C   0  0  0  0  0  0  0  0  0  0  0  0
    6.9090    1.5727   -3.1612 C   0  0  0  0  0  0  0  0  0  0  0  0
    5.6830    2.0982   -3.5627 C   0  0  0  0  0  0  0  0  0  0  0  0
    4.8215    1.3002   -4.3175 C   0  0  0  0  0  0  0  0  0  0  0  0
    4.4939   -0.5924   -5.2892 H   0  0  0  0  0  0  0  0  0  0  0  0
    6.6835   -1.5186   -4.5546 H   0  0  0  0  0  0  0  0  0  0  0  0
    7.5896    2.1909   -2.5808 H   0  0  0  0  0  0  0  0  0  0  0  0
    5.3982    3.1146   -3.3140 H   0  0  0  0  0  0  0  0  0  0  0  0
    3.2531    1.9621   -4.8470 S   0  0  0  0  0  0  0  0  0  0  0  0
    2.3347    1.4565   -3.6039 O   0  0  0  0  0  0  0  0  0  0  0  0
    2.8193    1.2805   -6.0711 O   0  0  0  0  0  0  0  0  0  0  0  0
    3.3094    3.4299   -4.8308 O   0  0  0  0  0  0  0  0  0  0  0  0
    8.6048   -0.3035   -3.0369 C   0  0  0  0  0  0  0  0  0  0  0  0
    8.5260   -0.6883   -2.0123 H   0  0  0  0  0  0  0  0  0  0  0  0
    8.9317   -1.1313   -3.6728 H   0  0  0  0  0  0  0  0  0  0  0  0
    9.3904    0.4588   -3.0368 H   0  0  0  0  0  0  0  0  0  0  0  0
   -1.0213   -0.8295   -1.8516 O   0  0  0  0  0  0  0  0  0  0  0  0
   -1.7781   -1.0209   -0.6646 C   0  0  0  0  0  0  0  0  0  0  0  0
   -2.1702   -2.0375   -0.7255 H   0  0  0  0  0  0  0  0  0  0  0  0
   -2.6174   -0.3178   -0.5938 H   0  0  0  0  0  0  0  0  0  0  0  0
   -1.1576   -0.9358    0.2367 H   0  0  0  0  0  0  0  0  0  0  0  0
  1  6  1  0  0  0  0
  2  8  1  6  0  0  0
  2 24  1  0  0  0  0
  2  1  1  0  0  0  0
  2  3  1  0  0  0  0
  3  4  2  0  0  0  0
  4  5  1  0  0  0  0
  4  9  1  0  0  0  0
  5 10  1  0  0  0  0
  6 31  1  0  0  0  0
  6  5  2  0  0  0  0
  7  1  1  0  0  0  0
 11  3  1  0  0  0  0
 12 11  1  0  0  0  0
 13 18  2  0  0  0  0
 13 14  1  0  0  0  0
 14 15  2  0  0  0  0
 15 16  1  0  0  0  0
 15 27  1  0  0  0  0
 16 21  1  0  0  0  0
 17 22  1  0  0  0  0
 17 16  2  0  0  0  0
 18 17  1  0  0  0  0
 19 13  1  0  0  0  0
 20 14  1  0  0  0  0
 23 26  2  0  0  0  0
 23 18  1  0  0  0  0
 23 24  1  0  0  0  0
 25 23  2  0  0  0  0
 27 30  1  0  0  0  0
 27 28  1  0  0  0  0
 29 27  1  0  0  0  0
 31 32  1  0  0  0  0
 32 34  1  0  0  0  0
 32 35  1  0  0  0  0
 33 32  1  0  0  0  0
M  RAD  3   1   2  11   2  12   3
M  END
