Coordinates from ORCA-job p-CH3O-Ph-N2-OTs-B3LYP-6-31G_dp-scan-d09-49-n400
 OpenBabel02051708043D

 35 35  0  0  0  0  0  0  0  0999 V2000
   -0.5053    0.0685   -2.8146 C   0  0  0  0  0  0  0  0  0  0  0  0
    0.5697    0.9603   -2.8875 C   0  0  0  0  0  0  0  0  0  0  0  0
    0.3835    2.0445   -2.0878 C   0  0  0  0  0  0  0  0  0  0  0  0
   -0.6240    2.4148   -1.2440 C   0  0  0  0  0  0  0  0  0  0  0  0
   -1.6750    1.4847   -1.1980 C   0  0  0  0  0  0  0  0  0  0  0  0
   -1.6135    0.3167   -1.9799 C   0  0  0  0  0  0  0  0  0  0  0  0
   -0.4924   -0.8383   -3.4101 H   0  0  0  0  0  0  0  0  0  0  0  0
    1.4440    0.8029   -3.5360 H   0  0  0  0  0  0  0  0  0  0  0  0
   -0.6295    3.3283   -0.6638 H   0  0  0  0  0  0  0  0  0  0  0  0
   -2.5205    1.6935   -0.5538 H   0  0  0  0  0  0  0  0  0  0  0  0
    1.7673    3.3492   -2.1381 N   0  0  0  0  0  0  0  0  0  0  0  0
    2.0329    4.4165   -1.9714 N   0  0  0  0  0  0  0  0  0  0  0  0
    5.7529    0.0080   -4.1625 C   0  0  0  0  0  0  0  0  0  0  0  0
    7.0837   -0.4079   -4.1929 C   0  0  0  0  0  0  0  0  0  0  0  0
    8.1342    0.5204   -4.1804 C   0  0  0  0  0  0  0  0  0  0  0  0
    7.8153    1.8863   -4.1486 C   0  0  0  0  0  0  0  0  0  0  0  0
    6.4899    2.3169   -4.1185 C   0  0  0  0  0  0  0  0  0  0  0  0
    5.4624    1.3721   -4.1224 C   0  0  0  0  0  0  0  0  0  0  0  0
    4.9403   -0.7098   -4.1931 H   0  0  0  0  0  0  0  0  0  0  0  0
    7.3108   -1.4710   -4.2355 H   0  0  0  0  0  0  0  0  0  0  0  0
    8.6162    2.6224   -4.1559 H   0  0  0  0  0  0  0  0  0  0  0  0
    6.2432    3.3737   -4.1156 H   0  0  0  0  0  0  0  0  0  0  0  0
    3.7544    1.9262   -4.0510 S   0  0  0  0  0  0  0  0  0  0  0  0
    3.4423    1.9494   -2.5567 O   0  0  0  0  0  0  0  0  0  0  0  0
    2.9455    0.8704   -4.7301 O   0  0  0  0  0  0  0  0  0  0  0  0
    3.6941    3.2726   -4.6533 O   0  0  0  0  0  0  0  0  0  0  0  0
    9.5742    0.0631   -4.1840 C   0  0  0  0  0  0  0  0  0  0  0  0
    9.9762    0.0122   -3.1638 H   0  0  0  0  0  0  0  0  0  0  0  0
    9.6767   -0.9336   -4.6239 H   0  0  0  0  0  0  0  0  0  0  0  0
   10.2124    0.7503   -4.7488 H   0  0  0  0  0  0  0  0  0  0  0  0
   -2.5760   -0.6341   -2.0014 O   0  0  0  0  0  0  0  0  0  0  0  0
   -3.7281   -0.4666   -1.1814 C   0  0  0  0  0  0  0  0  0  0  0  0
   -4.3498   -1.3448   -1.3601 H   0  0  0  0  0  0  0  0  0  0  0  0
   -4.2881    0.4360   -1.4568 H   0  0  0  0  0  0  0  0  0  0  0  0
   -3.4597   -0.4217   -0.1185 H   0  0  0  0  0  0  0  0  0  0  0  0
  1  6  1  0  0  0  0
  2  1  2  0  0  0  0
  2  3  1  0  0  0  0
  3  4  2  0  0  0  0
  4  5  1  0  0  0  0
  4  9  1  0  0  0  0
  5 10  1  0  0  0  0
  6  5  2  0  0  0  0
  7  1  1  0  0  0  0
  8  2  1  0  0  0  0
 11  3  1  0  0  0  0
 11 12  2  0  0  0  0
 13 18  2  0  0  0  0
 14 15  2  0  0  0  0
 14 13  1  0  0  0  0
 15 16  1  0  0  0  0
 16 17  2  0  0  0  0
 17 22  1  0  0  0  0
 18 17  1  0  0  0  0
 18 23  1  0  0  0  0
 19 13  1  0  0  0  0
 20 14  1  0  0  0  0
 21 16  1  0  0  0  0
 23 24  1  0  0  0  0
 25 23  2  0  0  0  0
 26 23  2  0  0  0  0
 27 15  1  0  0  0  0
 27 28  1  0  0  0  0
 29 27  1  0  0  0  0
 30 27  1  0  0  0  0
 31  6  1  0  0  0  0
 31 32  1  0  0  0  0
 32 35  1  0  0  0  0
 33 32  1  0  0  0  0
 34 32  1  0  0  0  0
M  RAD  2  12   2  24   2
M  END
