Coordinates from ORCA-job p-CH3O-Ph-N2-OTs-B3LYP-6-31G_dp-scan-d09-49-n400
 OpenBabel02051708043D

 35 34  0  0  0  0  0  0  0  0999 V2000
   -0.5559   -0.0371   -2.7971 C   0  0  0  0  0  0  0  0  0  0  0  0
    0.4906    0.7400   -2.2925 C   0  0  0  0  0  0  0  0  0  0  0  0
    0.2058    1.6496   -1.4686 C   0  0  0  0  0  0  0  0  0  0  0  0
   -0.9307    2.1377   -0.8907 C   0  0  0  0  0  0  0  0  0  0  0  0
   -2.0182    1.3755   -1.3768 C   0  0  0  0  0  0  0  0  0  0  0  0
   -1.8377    0.3185   -2.3034 C   0  0  0  0  0  0  0  0  0  0  0  0
   -0.4590   -0.8480   -3.5116 H   0  0  0  0  0  0  0  0  0  0  0  0
    2.3631    0.5709   -2.8772 H   0  0  0  0  0  0  0  0  0  0  0  0
   -1.0335    2.9529   -0.1860 H   0  0  0  0  0  0  0  0  0  0  0  0
   -3.0102    1.6225   -1.0167 H   0  0  0  0  0  0  0  0  0  0  0  0
    2.2028    3.4048    0.0369 N   0  0  0  0  0  0  0  0  0  0  0  0
    3.2534    3.4881    0.3691 N   0  0  0  0  0  0  0  0  0  0  0  0
    6.4537    1.5672   -2.9353 C   0  0  0  0  0  0  0  0  0  0  0  0
    7.7880    1.2100   -3.1149 C   0  0  0  0  0  0  0  0  0  0  0  0
    8.2398    0.6787   -4.3328 C   0  0  0  0  0  0  0  0  0  0  0  0
    7.3185    0.5229   -5.3788 C   0  0  0  0  0  0  0  0  0  0  0  0
    5.9796    0.8754   -5.2189 C   0  0  0  0  0  0  0  0  0  0  0  0
    5.5592    1.3899   -3.9921 C   0  0  0  0  0  0  0  0  0  0  0  0
    6.1071    1.9926   -1.9998 H   0  0  0  0  0  0  0  0  0  0  0  0
    8.4923    1.3524   -2.2990 H   0  0  0  0  0  0  0  0  0  0  0  0
    7.6555    0.1265   -6.3330 H   0  0  0  0  0  0  0  0  0  0  0  0
    5.2696    0.7699   -6.0323 H   0  0  0  0  0  0  0  0  0  0  0  0
    3.8510    1.8548   -3.7792 S   0  0  0  0  0  0  0  0  0  0  0  0
    3.7456    2.8603   -2.7180 O   0  0  0  0  0  0  0  0  0  0  0  0
    3.2921    0.4356   -3.2046 O   0  0  0  0  0  0  0  0  0  0  0  0
    3.2542    2.1150   -5.0888 O   0  0  0  0  0  0  0  0  0  0  0  0
    9.6827    0.2680   -4.5062 C   0  0  0  0  0  0  0  0  0  0  0  0
   10.3545    0.9103   -3.9294 H   0  0  0  0  0  0  0  0  0  0  0  0
    9.8401   -0.7615   -4.1602 H   0  0  0  0  0  0  0  0  0  0  0  0
    9.9874    0.3092   -5.5560 H   0  0  0  0  0  0  0  0  0  0  0  0
   -2.8628   -0.4347   -2.7939 O   0  0  0  0  0  0  0  0  0  0  0  0
   -4.1898   -0.1414   -2.3835 C   0  0  0  0  0  0  0  0  0  0  0  0
   -4.8305   -0.8541   -2.9045 H   0  0  0  0  0  0  0  0  0  0  0  0
   -4.4827    0.8787   -2.6643 H   0  0  0  0  0  0  0  0  0  0  0  0
   -4.3153   -0.2692   -1.3000 H   0  0  0  0  0  0  0  0  0  0  0  0
  1  6  2  0  0  0  0
  1  2  1  0  0  0  0
  2  3  2  0  0  0  0
  3  4  1  0  0  0  0
  4  9  1  0  0  0  0
  5 10  1  0  0  0  0
  5  4  2  0  0  0  0
  6  5  1  0  0  0  0
  7  1  1  0  0  0  0
 11 12  3  0  0  0  0
 13 19  1  0  0  0  0
 14 13  1  0  0  0  0
 14 20  1  0  0  0  0
 15 14  2  0  0  0  0
 16 17  2  0  0  0  0
 16 15  1  0  0  0  0
 17 18  1  0  0  0  0
 18 23  1  0  0  0  0
 18 13  2  0  0  0  0
 21 16  1  0  0  0  0
 22 17  1  0  0  0  0
 23 25  1  0  0  0  0
 23 24  2  0  0  0  0
 25  8  1  0  0  0  0
 26 23  2  0  0  0  0
 27 15  1  0  0  0  0
 27 29  1  0  0  0  0
 27 28  1  0  0  0  0
 30 27  1  0  0  0  0
 31 32  1  0  0  0  0
 31  6  1  0  0  0  0
 32 35  1  0  0  0  0
 33 32  1  0  0  0  0
 34 32  1  0  0  0  0
M  RAD  2   2   2   3   2
M  END
