Coordinates from ORCA-job p-CH3O-Ph-N2-OTs-B3LYP-6-31G_dp-scan-d09-49-n400
 OpenBabel02051708043D

 35 35  0  0  0  0  0  0  0  0999 V2000
   -0.6365   -0.7224   -2.1938 C   0  0  0  0  0  0  0  0  0  0  0  0
    0.7176   -0.5953   -2.4738 C   0  0  0  0  0  0  0  0  0  0  0  0
    1.2526    0.6746   -2.7038 C   0  0  0  0  0  0  0  0  0  0  0  0
    0.4484    1.8080   -2.6659 C   0  0  0  0  0  0  0  0  0  0  0  0
   -0.9147    1.6821   -2.3848 C   0  0  0  0  0  0  0  0  0  0  0  0
   -1.4609    0.4139   -2.1474 C   0  0  0  0  0  0  0  0  0  0  0  0
   -1.0830   -1.6937   -2.0079 H   0  0  0  0  0  0  0  0  0  0  0  0
    1.3640   -1.4648   -2.5178 H   0  0  0  0  0  0  0  0  0  0  0  0
    0.8877    2.7809   -2.8563 H   0  0  0  0  0  0  0  0  0  0  0  0
   -1.5320    2.5724   -2.3576 H   0  0  0  0  0  0  0  0  0  0  0  0
    4.1240    2.2208   -0.1403 N   0  0  0  0  0  0  0  0  0  0  0  0
    4.6824    1.2836   -0.3179 N   0  0  0  0  0  0  0  0  0  0  0  0
    5.6736   -0.1680   -3.9092 C   0  0  0  0  0  0  0  0  0  0  0  0
    7.0329    0.0142   -3.6753 C   0  0  0  0  0  0  0  0  0  0  0  0
    7.6154    1.2914   -3.7319 C   0  0  0  0  0  0  0  0  0  0  0  0
    6.7976    2.3881   -4.0354 C   0  0  0  0  0  0  0  0  0  0  0  0
    5.4325    2.2274   -4.2715 C   0  0  0  0  0  0  0  0  0  0  0  0
    4.8844    0.9475   -4.2009 C   0  0  0  0  0  0  0  0  0  0  0  0
    5.2264   -1.1558   -3.8789 H   0  0  0  0  0  0  0  0  0  0  0  0
    7.6546   -0.8480   -3.4483 H   0  0  0  0  0  0  0  0  0  0  0  0
    7.2344    3.3815   -4.0926 H   0  0  0  0  0  0  0  0  0  0  0  0
    4.8009    3.0738   -4.5181 H   0  0  0  0  0  0  0  0  0  0  0  0
    3.1449    0.7272   -4.5100 S   0  0  0  0  0  0  0  0  0  0  0  0
    2.6362    0.8145   -2.9165 O   0  0  0  0  0  0  0  0  0  0  0  0
    2.8936   -0.6276   -4.9975 O   0  0  0  0  0  0  0  0  0  0  0  0
    2.6165    1.8864   -5.2266 O   0  0  0  0  0  0  0  0  0  0  0  0
    9.0925    1.4674   -3.4731 C   0  0  0  0  0  0  0  0  0  0  0  0
    9.6903    0.8688   -4.1692 H   0  0  0  0  0  0  0  0  0  0  0  0
    9.3974    2.5117   -3.5794 H   0  0  0  0  0  0  0  0  0  0  0  0
    9.3564    1.1410   -2.4605 H   0  0  0  0  0  0  0  0  0  0  0  0
   -2.7738    0.1768   -1.8623 O   0  0  0  0  0  0  0  0  0  0  0  0
   -3.6625    1.2819   -1.8164 C   0  0  0  0  0  0  0  0  0  0  0  0
   -4.6450    0.8691   -1.5820 H   0  0  0  0  0  0  0  0  0  0  0  0
   -3.7110    1.8029   -2.7817 H   0  0  0  0  0  0  0  0  0  0  0  0
   -3.3775    1.9994   -1.0355 H   0  0  0  0  0  0  0  0  0  0  0  0
  1  6  1  0  0  0  0
  1  7  1  0  0  0  0
  2  1  2  0  0  0  0
  3  4  2  0  0  0  0
  3  2  1  0  0  0  0
  4  5  1  0  0  0  0
  5 10  1  0  0  0  0
  5  6  2  0  0  0  0
  6 31  1  0  0  0  0
  8  2  1  0  0  0  0
  9  4  1  0  0  0  0
 12 11  3  0  0  0  0
 13 19  1  0  0  0  0
 13 14  2  0  0  0  0
 14 20  1  0  0  0  0
 15 14  1  0  0  0  0
 15 27  1  0  0  0  0
 16 15  2  0  0  0  0
 17 18  2  0  0  0  0
 17 16  1  0  0  0  0
 18 13  1  0  0  0  0
 21 16  1  0  0  0  0
 22 17  1  0  0  0  0
 23 18  1  0  0  0  0
 23 24  1  0  0  0  0
 24  3  1  0  0  0  0
 25 23  2  0  0  0  0
 26 23  2  0  0  0  0
 27 30  1  0  0  0  0
 28 27  1  0  0  0  0
 29 27  1  0  0  0  0
 31 32  1  0  0  0  0
 32 33  1  0  0  0  0
 32 35  1  0  0  0  0
 34 32  1  0  0  0  0
M  END
