Coordinates from ORCA-job p-CH3O-Ph-N2-OTs-B3LYP-6-31G_dp-scan-d09-49-n400
 OpenBabel02051708043D

 35 34  0  0  0  0  0  0  0  0999 V2000
   -0.3907    0.1769   -2.7216 C   0  0  0  0  0  0  0  0  0  0  0  0
    0.6169    0.9576   -2.1315 C   0  0  0  0  0  0  0  0  0  0  0  0
    0.2045    1.7799   -1.2552 C   0  0  0  0  0  0  0  0  0  0  0  0
   -0.9816    2.1575   -0.7006 C   0  0  0  0  0  0  0  0  0  0  0  0
   -2.0044    1.3802   -1.2859 C   0  0  0  0  0  0  0  0  0  0  0  0
   -1.7146    0.4101   -2.2757 C   0  0  0  0  0  0  0  0  0  0  0  0
   -0.2142   -0.5709   -3.4891 H   0  0  0  0  0  0  0  0  0  0  0  0
    2.3442    0.7329   -2.7469 H   0  0  0  0  0  0  0  0  0  0  0  0
   -1.1542    2.9113    0.0570 H   0  0  0  0  0  0  0  0  0  0  0  0
   -3.0231    1.5462   -0.9557 H   0  0  0  0  0  0  0  0  0  0  0  0
    1.7934    3.0706   -0.1560 N   0  0  0  0  0  0  0  0  0  0  0  0
    2.8655    3.1877    0.0883 N   0  0  0  0  0  0  0  0  0  0  0  0
    6.4678    1.6535   -2.9774 C   0  0  0  0  0  0  0  0  0  0  0  0
    7.7915    1.2611   -3.1654 C   0  0  0  0  0  0  0  0  0  0  0  0
    8.2005    0.6314   -4.3507 C   0  0  0  0  0  0  0  0  0  0  0  0
    7.2472    0.4127   -5.3563 C   0  0  0  0  0  0  0  0  0  0  0  0
    5.9191    0.7994   -5.1873 C   0  0  0  0  0  0  0  0  0  0  0  0
    5.5408    1.4125   -3.9922 C   0  0  0  0  0  0  0  0  0  0  0  0
    6.1539    2.1540   -2.0679 H   0  0  0  0  0  0  0  0  0  0  0  0
    8.5208    1.4534   -2.3825 H   0  0  0  0  0  0  0  0  0  0  0  0
    7.5507   -0.0600   -6.2868 H   0  0  0  0  0  0  0  0  0  0  0  0
    5.1849    0.6455   -5.9710 H   0  0  0  0  0  0  0  0  0  0  0  0
    3.8452    1.9214   -3.7688 S   0  0  0  0  0  0  0  0  0  0  0  0
    3.7884    2.9960   -2.7714 O   0  0  0  0  0  0  0  0  0  0  0  0
    3.2721    0.5602   -3.0980 O   0  0  0  0  0  0  0  0  0  0  0  0
    3.2273    2.1195   -5.0800 O   0  0  0  0  0  0  0  0  0  0  0  0
    9.6312    0.1833   -4.5326 C   0  0  0  0  0  0  0  0  0  0  0  0
   10.3253    0.8230   -3.9800 H   0  0  0  0  0  0  0  0  0  0  0  0
    9.7696   -0.8416   -4.1653 H   0  0  0  0  0  0  0  0  0  0  0  0
    9.9229    0.1925   -5.5871 H   0  0  0  0  0  0  0  0  0  0  0  0
   -2.6641   -0.3643   -2.8716 O   0  0  0  0  0  0  0  0  0  0  0  0
   -4.0238   -0.1879   -2.5046 C   0  0  0  0  0  0  0  0  0  0  0  0
   -4.5931   -0.8972   -3.1070 H   0  0  0  0  0  0  0  0  0  0  0  0
   -4.3721    0.8303   -2.7226 H   0  0  0  0  0  0  0  0  0  0  0  0
   -4.1875   -0.4068   -1.4410 H   0  0  0  0  0  0  0  0  0  0  0  0
  1  6  2  0  0  0  0
  1  2  1  0  0  0  0
  2  3  2  0  0  0  0
  3  4  1  0  0  0  0
  4  9  1  0  0  0  0
  5 10  1  0  0  0  0
  5  4  2  0  0  0  0
  6  5  1  0  0  0  0
  7  1  1  0  0  0  0
 11 12  3  0  0  0  0
 13 19  1  0  0  0  0
 14 13  1  0  0  0  0
 14 20  1  0  0  0  0
 15 14  2  0  0  0  0
 16 17  2  0  0  0  0
 16 15  1  0  0  0  0
 17 18  1  0  0  0  0
 18 23  1  0  0  0  0
 18 13  2  0  0  0  0
 21 16  1  0  0  0  0
 22 17  1  0  0  0  0
 23 25  1  0  0  0  0
 23 24  2  0  0  0  0
 25  8  1  0  0  0  0
 26 23  2  0  0  0  0
 27 15  1  0  0  0  0
 27 29  1  0  0  0  0
 27 28  1  0  0  0  0
 30 27  1  0  0  0  0
 31 32  1  0  0  0  0
 31  6  1  0  0  0  0
 32 35  1  0  0  0  0
 33 32  1  0  0  0  0
 34 32  1  0  0  0  0
M  RAD  2   2   2   3   2
M  END
