Coordinates from ORCA-job p-CH3O-Ph-N2-OTs-B3LYP-6-31G_dp-scan-d09-49-n400
 OpenBabel02051708043D

 35 36  0  0  1  0  0  0  0  0999 V2000
    0.0827    0.5657   -3.3459 C   0  0  0  0  0  0  0  0  0  0  0  0
    0.8190    1.7910   -3.7139 C   0  0  1  0  0  0  0  0  0  0  0  0
    0.5066    2.9146   -2.7801 C   0  0  0  0  0  0  0  0  0  0  0  0
   -0.0366    2.6922   -1.4709 C   0  0  0  0  0  0  0  0  0  0  0  0
   -0.4948    1.4596   -1.1309 C   0  0  0  0  0  0  0  0  0  0  0  0
   -0.4703    0.3926   -2.1151 C   0  0  0  0  0  0  0  0  0  0  0  0
    0.0567   -0.2455   -4.0643 H   0  0  0  0  0  0  0  0  0  0  0  0
    0.6765    2.0629   -4.7619 H   0  0  0  0  0  0  0  0  0  0  0  0
   -0.0791    3.5222   -0.7724 H   0  0  0  0  0  0  0  0  0  0  0  0
   -0.8959    1.2897   -0.1404 H   0  0  0  0  0  0  0  0  0  0  0  0
    0.8206    4.1446   -3.1458 N   0  0  0  0  0  0  0  0  0  0  0  0
    1.0912    5.2012   -3.4674 N   0  0  0  0  0  0  0  0  0  0  0  0
    5.1676   -0.0096   -4.6732 C   0  0  0  0  0  0  0  0  0  0  0  0
    6.3989   -0.5127   -4.2581 C   0  0  0  0  0  0  0  0  0  0  0  0
    7.2841    0.2686   -3.5007 C   0  0  0  0  0  0  0  0  0  0  0  0
    6.9088    1.5809   -3.1737 C   0  0  0  0  0  0  0  0  0  0  0  0
    5.6817    2.1017   -3.5781 C   0  0  0  0  0  0  0  0  0  0  0  0
    4.8188    1.2953   -4.3222 C   0  0  0  0  0  0  0  0  0  0  0  0
    4.4895   -0.6080   -5.2725 H   0  0  0  0  0  0  0  0  0  0  0  0
    6.6809   -1.5255   -4.5328 H   0  0  0  0  0  0  0  0  0  0  0  0
    7.5906    2.2056   -2.6016 H   0  0  0  0  0  0  0  0  0  0  0  0
    5.3971    3.1206   -3.3398 H   0  0  0  0  0  0  0  0  0  0  0  0
    3.2494    1.9512   -4.8555 S   0  0  0  0  0  0  0  0  0  0  0  0
    2.3337    1.4567   -3.6045 O   0  0  0  0  0  0  0  0  0  0  0  0
    2.8130    1.2570   -6.0714 O   0  0  0  0  0  0  0  0  0  0  0  0
    3.3040    3.4190   -4.8530 O   0  0  0  0  0  0  0  0  0  0  0  0
    8.6053   -0.2936   -3.0329 C   0  0  0  0  0  0  0  0  0  0  0  0
    8.5276   -0.6720   -2.0058 H   0  0  0  0  0  0  0  0  0  0  0  0
    8.9332   -1.1250   -3.6636 H   0  0  0  0  0  0  0  0  0  0  0  0
    9.3897    0.4699   -3.0382 H   0  0  0  0  0  0  0  0  0  0  0  0
   -1.0284   -0.8273   -1.8609 O   0  0  0  0  0  0  0  0  0  0  0  0
   -1.7872   -1.0205   -0.6755 C   0  0  0  0  0  0  0  0  0  0  0  0
   -2.1858   -2.0342   -0.7425 H   0  0  0  0  0  0  0  0  0  0  0  0
   -2.6220   -0.3124   -0.6013 H   0  0  0  0  0  0  0  0  0  0  0  0
   -1.1669   -0.9447    0.2267 H   0  0  0  0  0  0  0  0  0  0  0  0
  1  6  1  0  0  0  0
  2  8  1  6  0  0  0
  2 24  1  0  0  0  0
  2  1  1  0  0  0  0
  2  3  1  0  0  0  0
  3  4  2  0  0  0  0
  4  5  1  0  0  0  0
  4  9  1  0  0  0  0
  5 10  1  0  0  0  0
  6 31  1  0  0  0  0
  6  5  2  0  0  0  0
  7  1  1  0  0  0  0
 11  3  1  0  0  0  0
 12 11  1  0  0  0  0
 13 18  2  0  0  0  0
 13 14  1  0  0  0  0
 14 15  2  0  0  0  0
 15 16  1  0  0  0  0
 15 27  1  0  0  0  0
 16 21  1  0  0  0  0
 17 22  1  0  0  0  0
 17 16  2  0  0  0  0
 18 17  1  0  0  0  0
 19 13  1  0  0  0  0
 20 14  1  0  0  0  0
 23 26  2  0  0  0  0
 23 18  1  0  0  0  0
 23 24  1  0  0  0  0
 25 23  2  0  0  0  0
 27 28  1  0  0  0  0
 29 27  1  0  0  0  0
 30 27  1  0  0  0  0
 31 32  1  0  0  0  0
 32 34  1  0  0  0  0
 32 35  1  0  0  0  0
 33 32  1  0  0  0  0
M  RAD  3   1   2  11   2  12   3
M  END
