Coordinates from ORCA-job p-CH3O-Ph-N2-OTs-B3LYP-6-31G_dp-scan-d09-49-n400
 OpenBabel02051708043D

 35 35  0  0  0  0  0  0  0  0999 V2000
   -0.6440   -0.7273   -2.2051 C   0  0  0  0  0  0  0  0  0  0  0  0
    0.7106   -0.5970   -2.4811 C   0  0  0  0  0  0  0  0  0  0  0  0
    1.2445    0.6746   -2.7033 C   0  0  0  0  0  0  0  0  0  0  0  0
    0.4386    1.8068   -2.6618 C   0  0  0  0  0  0  0  0  0  0  0  0
   -0.9250    1.6777   -2.3848 C   0  0  0  0  0  0  0  0  0  0  0  0
   -1.4701    0.4076   -2.1550 C   0  0  0  0  0  0  0  0  0  0  0  0
   -1.0897   -1.7002   -2.0253 H   0  0  0  0  0  0  0  0  0  0  0  0
    1.3582   -1.4655   -2.5279 H   0  0  0  0  0  0  0  0  0  0  0  0
    0.8769    2.7813   -2.8464 H   0  0  0  0  0  0  0  0  0  0  0  0
   -1.5436    2.5670   -2.3547 H   0  0  0  0  0  0  0  0  0  0  0  0
    4.2457    2.2672   -0.1195 N   0  0  0  0  0  0  0  0  0  0  0  0
    4.7788    1.3187   -0.3146 N   0  0  0  0  0  0  0  0  0  0  0  0
    5.6633   -0.1644   -3.8957 C   0  0  0  0  0  0  0  0  0  0  0  0
    7.0235    0.0130   -3.6635 C   0  0  0  0  0  0  0  0  0  0  0  0
    7.6119    1.2870   -3.7290 C   0  0  0  0  0  0  0  0  0  0  0  0
    6.7990    2.3856   -4.0388 C   0  0  0  0  0  0  0  0  0  0  0  0
    5.4329    2.2297   -4.2728 C   0  0  0  0  0  0  0  0  0  0  0  0
    4.8791    0.9529   -4.1941 C   0  0  0  0  0  0  0  0  0  0  0  0
    5.2118   -1.1500   -3.8590 H   0  0  0  0  0  0  0  0  0  0  0  0
    7.6412   -0.8505   -3.4309 H   0  0  0  0  0  0  0  0  0  0  0  0
    7.2403    3.3766   -4.1025 H   0  0  0  0  0  0  0  0  0  0  0  0
    4.8049    3.0775   -4.5241 H   0  0  0  0  0  0  0  0  0  0  0  0
    3.1392    0.7380   -4.5053 S   0  0  0  0  0  0  0  0  0  0  0  0
    2.6283    0.8176   -2.9121 O   0  0  0  0  0  0  0  0  0  0  0  0
    2.8856   -0.6138   -5.0001 O   0  0  0  0  0  0  0  0  0  0  0  0
    2.6143    1.9020   -5.2166 O   0  0  0  0  0  0  0  0  0  0  0  0
    9.0904    1.4575   -3.4746 C   0  0  0  0  0  0  0  0  0  0  0  0
    9.6840    0.8679   -4.1821 H   0  0  0  0  0  0  0  0  0  0  0  0
    9.3963    2.5027   -3.5680 H   0  0  0  0  0  0  0  0  0  0  0  0
    9.3589    1.1163   -2.4681 H   0  0  0  0  0  0  0  0  0  0  0  0
   -2.7833    0.1673   -1.8744 O   0  0  0  0  0  0  0  0  0  0  0  0
   -3.6736    1.2710   -1.8252 C   0  0  0  0  0  0  0  0  0  0  0  0
   -4.6562    0.8557   -1.5951 H   0  0  0  0  0  0  0  0  0  0  0  0
   -3.7207    1.7964   -2.7882 H   0  0  0  0  0  0  0  0  0  0  0  0
   -3.3915    1.9851   -1.0403 H   0  0  0  0  0  0  0  0  0  0  0  0
  1  6  1  0  0  0  0
  1  7  1  0  0  0  0
  2  1  2  0  0  0  0
  3  4  2  0  0  0  0
  3  2  1  0  0  0  0
  4  5  1  0  0  0  0
  5 10  1  0  0  0  0
  5  6  2  0  0  0  0
  6 31  1  0  0  0  0
  8  2  1  0  0  0  0
  9  4  1  0  0  0  0
 12 11  3  0  0  0  0
 13 19  1  0  0  0  0
 13 14  2  0  0  0  0
 14 20  1  0  0  0  0
 15 14  1  0  0  0  0
 15 27  1  0  0  0  0
 16 15  2  0  0  0  0
 17 18  2  0  0  0  0
 17 16  1  0  0  0  0
 18 13  1  0  0  0  0
 21 16  1  0  0  0  0
 22 17  1  0  0  0  0
 23 18  1  0  0  0  0
 23 24  1  0  0  0  0
 24  3  1  0  0  0  0
 25 23  2  0  0  0  0
 26 23  2  0  0  0  0
 27 30  1  0  0  0  0
 28 27  1  0  0  0  0
 29 27  1  0  0  0  0
 31 32  1  0  0  0  0
 32 33  1  0  0  0  0
 32 35  1  0  0  0  0
 34 32  1  0  0  0  0
M  END
