Coordinates from ORCA-job p-CH3O-Ph-N2-OTs-B3LYP-6-31G_dp-scan-d09-49-n400
 OpenBabel02051708043D

 35 35  0  0  0  0  0  0  0  0999 V2000
   -0.6141   -0.7044   -2.1907 C   0  0  0  0  0  0  0  0  0  0  0  0
    0.7394   -0.5948   -2.4808 C   0  0  0  0  0  0  0  0  0  0  0  0
    1.2898    0.6687   -2.7102 C   0  0  0  0  0  0  0  0  0  0  0  0
    0.5021    1.8129   -2.6607 C   0  0  0  0  0  0  0  0  0  0  0  0
   -0.8603    1.7047   -2.3689 C   0  0  0  0  0  0  0  0  0  0  0  0
   -1.4223    0.4431   -2.1329 C   0  0  0  0  0  0  0  0  0  0  0  0
   -1.0725   -1.6702   -2.0054 H   0  0  0  0  0  0  0  0  0  0  0  0
    1.3736   -1.4728   -2.5335 H   0  0  0  0  0  0  0  0  0  0  0  0
    0.9537    2.7804   -2.8497 H   0  0  0  0  0  0  0  0  0  0  0  0
   -1.4650    2.6032   -2.3326 H   0  0  0  0  0  0  0  0  0  0  0  0
    3.5098    1.9455   -0.0578 N   0  0  0  0  0  0  0  0  0  0  0  0
    4.2103    1.0918   -0.0083 N   0  0  0  0  0  0  0  0  0  0  0  0
    5.7183   -0.1725   -3.9233 C   0  0  0  0  0  0  0  0  0  0  0  0
    7.0755    0.0343   -3.6968 C   0  0  0  0  0  0  0  0  0  0  0  0
    7.6382    1.3191   -3.7756 C   0  0  0  0  0  0  0  0  0  0  0  0
    6.8029    2.3980   -4.0958 C   0  0  0  0  0  0  0  0  0  0  0  0
    5.4398    2.2126   -4.3249 C   0  0  0  0  0  0  0  0  0  0  0  0
    4.9114    0.9258   -4.2309 C   0  0  0  0  0  0  0  0  0  0  0  0
    5.2866   -1.1665   -3.8765 H   0  0  0  0  0  0  0  0  0  0  0  0
    7.7112   -0.8146   -3.4589 H   0  0  0  0  0  0  0  0  0  0  0  0
    7.2244    3.3967   -4.1723 H   0  0  0  0  0  0  0  0  0  0  0  0
    4.7951    3.0448   -4.5852 H   0  0  0  0  0  0  0  0  0  0  0  0
    3.1740    0.6752   -4.5281 S   0  0  0  0  0  0  0  0  0  0  0  0
    2.6734    0.7921   -2.9339 O   0  0  0  0  0  0  0  0  0  0  0  0
    2.9391   -0.6938   -4.9832 O   0  0  0  0  0  0  0  0  0  0  0  0
    2.6262    1.8104   -5.2679 O   0  0  0  0  0  0  0  0  0  0  0  0
    9.1112    1.5242   -3.5155 C   0  0  0  0  0  0  0  0  0  0  0  0
    9.7199    0.8441   -4.1206 H   0  0  0  0  0  0  0  0  0  0  0  0
    9.4206    2.5478   -3.7427 H   0  0  0  0  0  0  0  0  0  0  0  0
    9.3556    1.3264   -2.4649 H   0  0  0  0  0  0  0  0  0  0  0  0
   -2.7361    0.2232   -1.8386 O   0  0  0  0  0  0  0  0  0  0  0  0
   -3.6092    1.3402   -1.7827 C   0  0  0  0  0  0  0  0  0  0  0  0
   -4.5958    0.9400   -1.5430 H   0  0  0  0  0  0  0  0  0  0  0  0
   -3.6572    1.8652   -2.7459 H   0  0  0  0  0  0  0  0  0  0  0  0
   -3.3094    2.0510   -1.0013 H   0  0  0  0  0  0  0  0  0  0  0  0
  1  6  1  0  0  0  0
  1  7  1  0  0  0  0
  2  1  2  0  0  0  0
  3  4  2  0  0  0  0
  3  2  1  0  0  0  0
  4  5  1  0  0  0  0
  5 10  1  0  0  0  0
  5  6  2  0  0  0  0
  6 31  1  0  0  0  0
  8  2  1  0  0  0  0
  9  4  1  0  0  0  0
 11 12  3  0  0  0  0
 13 19  1  0  0  0  0
 13 14  2  0  0  0  0
 14 20  1  0  0  0  0
 15 14  1  0  0  0  0
 15 27  1  0  0  0  0
 16 15  2  0  0  0  0
 17 18  2  0  0  0  0
 17 16  1  0  0  0  0
 18 13  1  0  0  0  0
 21 16  1  0  0  0  0
 22 17  1  0  0  0  0
 23 18  1  0  0  0  0
 23 24  1  0  0  0  0
 24  3  1  0  0  0  0
 25 23  2  0  0  0  0
 26 23  2  0  0  0  0
 27 30  1  0  0  0  0
 28 27  1  0  0  0  0
 29 27  1  0  0  0  0
 31 32  1  0  0  0  0
 32 33  1  0  0  0  0
 32 35  1  0  0  0  0
 34 32  1  0  0  0  0
M  END
