Coordinates from ORCA-job p-CH3O-Ph-N2-OTs-B3LYP-6-31G_dp-scan-d09-49-n400
 OpenBabel02051708043D

 35 35  0  0  0  0  0  0  0  0999 V2000
   -0.6335   -0.7225   -2.2226 C   0  0  0  0  0  0  0  0  0  0  0  0
    0.7208   -0.6077   -2.5073 C   0  0  0  0  0  0  0  0  0  0  0  0
    1.2713    0.6594   -2.7147 C   0  0  0  0  0  0  0  0  0  0  0  0
    0.4823    1.8021   -2.6492 C   0  0  0  0  0  0  0  0  0  0  0  0
   -0.8807    1.6890   -2.3625 C   0  0  0  0  0  0  0  0  0  0  0  0
   -1.4425    0.4234   -2.1481 C   0  0  0  0  0  0  0  0  0  0  0  0
   -1.0920   -1.6914   -2.0542 H   0  0  0  0  0  0  0  0  0  0  0  0
    1.3553   -1.4846   -2.5727 H   0  0  0  0  0  0  0  0  0  0  0  0
    0.9336    2.7729   -2.8218 H   0  0  0  0  0  0  0  0  0  0  0  0
   -1.4858    2.5866   -2.3132 H   0  0  0  0  0  0  0  0  0  0  0  0
    3.8039    2.1674   -0.0587 N   0  0  0  0  0  0  0  0  0  0  0  0
    4.4359    1.2633   -0.1296 N   0  0  0  0  0  0  0  0  0  0  0  0
    5.6971   -0.1754   -3.9190 C   0  0  0  0  0  0  0  0  0  0  0  0
    7.0551    0.0203   -3.6877 C   0  0  0  0  0  0  0  0  0  0  0  0
    7.6269    1.3017   -3.7556 C   0  0  0  0  0  0  0  0  0  0  0  0
    6.7999    2.3887   -4.0695 C   0  0  0  0  0  0  0  0  0  0  0  0
    5.4361    2.2145   -4.3034 C   0  0  0  0  0  0  0  0  0  0  0  0
    4.8986    0.9308   -4.2204 C   0  0  0  0  0  0  0  0  0  0  0  0
    5.2584   -1.1667   -3.8801 H   0  0  0  0  0  0  0  0  0  0  0  0
    7.6842   -0.8348   -3.4540 H   0  0  0  0  0  0  0  0  0  0  0  0
    7.2285    3.3850   -4.1372 H   0  0  0  0  0  0  0  0  0  0  0  0
    4.7976    3.0531   -4.5587 H   0  0  0  0  0  0  0  0  0  0  0  0
    3.1606    0.6942   -4.5255 S   0  0  0  0  0  0  0  0  0  0  0  0
    2.6555    0.7876   -2.9313 O   0  0  0  0  0  0  0  0  0  0  0  0
    2.9197   -0.6660   -5.0035 O   0  0  0  0  0  0  0  0  0  0  0  0
    2.6210    1.8441   -5.2485 O   0  0  0  0  0  0  0  0  0  0  0  0
    9.1010    1.4940   -3.4920 C   0  0  0  0  0  0  0  0  0  0  0  0
    9.7062    0.8304   -4.1187 H   0  0  0  0  0  0  0  0  0  0  0  0
    9.4135    2.5228   -3.6893 H   0  0  0  0  0  0  0  0  0  0  0  0
    9.3468    1.2636   -2.4485 H   0  0  0  0  0  0  0  0  0  0  0  0
   -2.7568    0.1980   -1.8603 O   0  0  0  0  0  0  0  0  0  0  0  0
   -3.6307    1.3134   -1.7881 C   0  0  0  0  0  0  0  0  0  0  0  0
   -4.6173    0.9089   -1.5562 H   0  0  0  0  0  0  0  0  0  0  0  0
   -3.6775    1.8535   -2.7430 H   0  0  0  0  0  0  0  0  0  0  0  0
   -3.3325    2.0120   -0.9951 H   0  0  0  0  0  0  0  0  0  0  0  0
  1  6  1  0  0  0  0
  1  7  1  0  0  0  0
  2  1  2  0  0  0  0
  3  4  2  0  0  0  0
  3  2  1  0  0  0  0
  4  5  1  0  0  0  0
  5 10  1  0  0  0  0
  5  6  2  0  0  0  0
  6 31  1  0  0  0  0
  8  2  1  0  0  0  0
  9  4  1  0  0  0  0
 12 11  3  0  0  0  0
 13 19  1  0  0  0  0
 13 14  2  0  0  0  0
 14 20  1  0  0  0  0
 15 14  1  0  0  0  0
 15 27  1  0  0  0  0
 16 15  2  0  0  0  0
 17 18  2  0  0  0  0
 17 16  1  0  0  0  0
 18 13  1  0  0  0  0
 21 16  1  0  0  0  0
 22 17  1  0  0  0  0
 23 18  1  0  0  0  0
 23 24  1  0  0  0  0
 24  3  1  0  0  0  0
 25 23  2  0  0  0  0
 26 23  2  0  0  0  0
 27 30  1  0  0  0  0
 28 27  1  0  0  0  0
 29 27  1  0  0  0  0
 31 32  1  0  0  0  0
 32 33  1  0  0  0  0
 32 35  1  0  0  0  0
 34 32  1  0  0  0  0
M  END
