Coordinates from ORCA-job p-CH3O-Ph-N2-OTs-B3LYP-6-31G_dp-scan-d09-49-n400
 OpenBabel02051708043D

 35 35  0  0  0  0  0  0  0  0999 V2000
   -0.5012    0.0717   -2.8162 C   0  0  0  0  0  0  0  0  0  0  0  0
    0.5707    0.9679   -2.8890 C   0  0  0  0  0  0  0  0  0  0  0  0
    0.3779    2.0493   -2.0885 C   0  0  0  0  0  0  0  0  0  0  0  0
   -0.6289    2.4170   -1.2438 C   0  0  0  0  0  0  0  0  0  0  0  0
   -1.6763    1.4823   -1.1984 C   0  0  0  0  0  0  0  0  0  0  0  0
   -1.6102    0.3150   -1.9811 C   0  0  0  0  0  0  0  0  0  0  0  0
   -0.4846   -0.8346   -3.4124 H   0  0  0  0  0  0  0  0  0  0  0  0
    1.4457    0.8141   -3.5380 H   0  0  0  0  0  0  0  0  0  0  0  0
   -0.6372    3.3301   -0.6631 H   0  0  0  0  0  0  0  0  0  0  0  0
   -2.5224    1.6875   -0.5539 H   0  0  0  0  0  0  0  0  0  0  0  0
    1.7647    3.3654   -2.1375 N   0  0  0  0  0  0  0  0  0  0  0  0
    2.0290    4.4329   -1.9712 N   0  0  0  0  0  0  0  0  0  0  0  0
    5.7488    0.0106   -4.1572 C   0  0  0  0  0  0  0  0  0  0  0  0
    7.0781   -0.4093   -4.1879 C   0  0  0  0  0  0  0  0  0  0  0  0
    8.1314    0.5159   -4.1801 C   0  0  0  0  0  0  0  0  0  0  0  0
    7.8167    1.8828   -4.1528 C   0  0  0  0  0  0  0  0  0  0  0  0
    6.4926    2.3175   -4.1225 C   0  0  0  0  0  0  0  0  0  0  0  0
    5.4622    1.3757   -4.1215 C   0  0  0  0  0  0  0  0  0  0  0  0
    4.9340   -0.7049   -4.1842 H   0  0  0  0  0  0  0  0  0  0  0  0
    7.3021   -1.4733   -4.2270 H   0  0  0  0  0  0  0  0  0  0  0  0
    8.6197    2.6164   -4.1638 H   0  0  0  0  0  0  0  0  0  0  0  0
    6.2489    3.3749   -4.1230 H   0  0  0  0  0  0  0  0  0  0  0  0
    3.7559    1.9353   -4.0491 S   0  0  0  0  0  0  0  0  0  0  0  0
    3.4443    1.9604   -2.5552 O   0  0  0  0  0  0  0  0  0  0  0  0
    2.9435    0.8813   -4.7273 O   0  0  0  0  0  0  0  0  0  0  0  0
    3.6995    3.2810   -4.6534 O   0  0  0  0  0  0  0  0  0  0  0  0
    9.5701    0.0541   -4.1838 C   0  0  0  0  0  0  0  0  0  0  0  0
    9.9716    0.0007   -3.1635 H   0  0  0  0  0  0  0  0  0  0  0  0
    9.6697   -0.9424   -4.6249 H   0  0  0  0  0  0  0  0  0  0  0  0
   10.2105    0.7401   -4.7475 H   0  0  0  0  0  0  0  0  0  0  0  0
   -2.5689   -0.6396   -2.0029 O   0  0  0  0  0  0  0  0  0  0  0  0
   -3.7212   -0.4774   -1.1822 C   0  0  0  0  0  0  0  0  0  0  0  0
   -4.3395   -1.3578   -1.3613 H   0  0  0  0  0  0  0  0  0  0  0  0
   -4.2849    0.4233   -1.4565 H   0  0  0  0  0  0  0  0  0  0  0  0
   -3.4523   -0.4323   -0.1194 H   0  0  0  0  0  0  0  0  0  0  0  0
  1  6  1  0  0  0  0
  2  1  2  0  0  0  0
  2  3  1  0  0  0  0
  3  4  2  0  0  0  0
  4  5  1  0  0  0  0
  4  9  1  0  0  0  0
  5 10  1  0  0  0  0
  6  5  2  0  0  0  0
  7  1  1  0  0  0  0
  8  2  1  0  0  0  0
 11  3  1  0  0  0  0
 11 12  2  0  0  0  0
 13 18  2  0  0  0  0
 14 15  2  0  0  0  0
 14 13  1  0  0  0  0
 15 16  1  0  0  0  0
 16 17  2  0  0  0  0
 17 18  1  0  0  0  0
 18 23  1  0  0  0  0
 19 13  1  0  0  0  0
 20 14  1  0  0  0  0
 21 16  1  0  0  0  0
 22 17  1  0  0  0  0
 23 24  1  0  0  0  0
 25 23  2  0  0  0  0
 26 23  2  0  0  0  0
 27 15  1  0  0  0  0
 27 28  1  0  0  0  0
 29 27  1  0  0  0  0
 30 27  1  0  0  0  0
 31  6  1  0  0  0  0
 31 32  1  0  0  0  0
 32 35  1  0  0  0  0
 33 32  1  0  0  0  0
 34 32  1  0  0  0  0
M  RAD  2  12   2  24   2
M  END
