Coordinates from ORCA-job p-CH3O-Ph-N2-OTs-B3LYP-6-31G_dp-scan-d09-49-n400
 OpenBabel02051708043D

 35 35  0  0  0  0  0  0  0  0999 V2000
   -0.6390   -0.7254   -2.2315 C   0  0  0  0  0  0  0  0  0  0  0  0
    0.7157   -0.6106   -2.5146 C   0  0  0  0  0  0  0  0  0  0  0  0
    1.2675    0.6570   -2.7157 C   0  0  0  0  0  0  0  0  0  0  0  0
    0.4795    1.8001   -2.6456 C   0  0  0  0  0  0  0  0  0  0  0  0
   -0.8838    1.6869   -2.3603 C   0  0  0  0  0  0  0  0  0  0  0  0
   -1.4470    0.4209   -2.1522 C   0  0  0  0  0  0  0  0  0  0  0  0
   -1.0984   -1.6947   -2.0680 H   0  0  0  0  0  0  0  0  0  0  0  0
    1.3494   -1.4878   -2.5836 H   0  0  0  0  0  0  0  0  0  0  0  0
    0.9318    2.7712   -2.8134 H   0  0  0  0  0  0  0  0  0  0  0  0
   -1.4881    2.5849   -2.3073 H   0  0  0  0  0  0  0  0  0  0  0  0
    3.8658    2.1985   -0.0519 N   0  0  0  0  0  0  0  0  0  0  0  0
    4.4817    1.2855   -0.1451 N   0  0  0  0  0  0  0  0  0  0  0  0
    5.6938   -0.1759   -3.9148 C   0  0  0  0  0  0  0  0  0  0  0  0
    7.0517    0.0195   -3.6828 C   0  0  0  0  0  0  0  0  0  0  0  0
    7.6242    1.3005   -3.7524 C   0  0  0  0  0  0  0  0  0  0  0  0
    6.7979    2.3875   -4.0684 C   0  0  0  0  0  0  0  0  0  0  0  0
    5.4342    2.2135   -4.3026 C   0  0  0  0  0  0  0  0  0  0  0  0
    4.8961    0.9303   -4.2182 C   0  0  0  0  0  0  0  0  0  0  0  0
    5.2547   -1.1670   -3.8748 H   0  0  0  0  0  0  0  0  0  0  0  0
    7.6802   -0.8355   -3.4474 H   0  0  0  0  0  0  0  0  0  0  0  0
    7.2271    3.3834   -4.1372 H   0  0  0  0  0  0  0  0  0  0  0  0
    4.7961    3.0521   -4.5593 H   0  0  0  0  0  0  0  0  0  0  0  0
    3.1582    0.6941   -4.5245 S   0  0  0  0  0  0  0  0  0  0  0  0
    2.6519    0.7852   -2.9306 O   0  0  0  0  0  0  0  0  0  0  0  0
    2.9176   -0.6654   -5.0045 O   0  0  0  0  0  0  0  0  0  0  0  0
    2.6191    1.8450   -5.2463 O   0  0  0  0  0  0  0  0  0  0  0  0
    9.0984    1.4924   -3.4887 C   0  0  0  0  0  0  0  0  0  0  0  0
    9.7035    0.8323   -4.1192 H   0  0  0  0  0  0  0  0  0  0  0  0
    9.4102    2.5223   -3.6809 H   0  0  0  0  0  0  0  0  0  0  0  0
    9.3450    1.2566   -2.4466 H   0  0  0  0  0  0  0  0  0  0  0  0
   -2.7616    0.1953   -1.8663 O   0  0  0  0  0  0  0  0  0  0  0  0
   -3.6346    1.3112   -1.7897 C   0  0  0  0  0  0  0  0  0  0  0  0
   -4.6217    0.9065   -1.5602 H   0  0  0  0  0  0  0  0  0  0  0  0
   -3.6804    1.8556   -2.7422 H   0  0  0  0  0  0  0  0  0  0  0  0
   -3.3363    2.0060   -0.9934 H   0  0  0  0  0  0  0  0  0  0  0  0
  1  6  1  0  0  0  0
  1  7  1  0  0  0  0
  2  1  2  0  0  0  0
  3  4  2  0  0  0  0
  3  2  1  0  0  0  0
  4  5  1  0  0  0  0
  5 10  1  0  0  0  0
  5  6  2  0  0  0  0
  6 31  1  0  0  0  0
  8  2  1  0  0  0  0
  9  4  1  0  0  0  0
 12 11  3  0  0  0  0
 13 19  1  0  0  0  0
 13 14  2  0  0  0  0
 14 20  1  0  0  0  0
 15 14  1  0  0  0  0
 15 27  1  0  0  0  0
 16 15  2  0  0  0  0
 17 18  2  0  0  0  0
 17 16  1  0  0  0  0
 18 13  1  0  0  0  0
 21 16  1  0  0  0  0
 22 17  1  0  0  0  0
 23 18  1  0  0  0  0
 23 24  1  0  0  0  0
 24  3  1  0  0  0  0
 25 23  2  0  0  0  0
 26 23  2  0  0  0  0
 27 30  1  0  0  0  0
 28 27  1  0  0  0  0
 29 27  1  0  0  0  0
 31 32  1  0  0  0  0
 32 33  1  0  0  0  0
 32 35  1  0  0  0  0
 34 32  1  0  0  0  0
M  END
