Coordinates from ORCA-job p-CH3O-Ph-N2-OTs-B3LYP-6-31G_dp-scan-d09-49-n400
 OpenBabel02051708043D

 35 34  0  0  0  0  0  0  0  0999 V2000
   -0.6397   -0.1955   -2.8036 C   0  0  0  0  0  0  0  0  0  0  0  0
    0.4463    0.5723   -2.3789 C   0  0  0  0  0  0  0  0  0  0  0  0
    0.2304    1.5551   -1.6226 C   0  0  0  0  0  0  0  0  0  0  0  0
   -0.8724    2.1367   -1.0631 C   0  0  0  0  0  0  0  0  0  0  0  0
   -2.0029    1.3902   -1.4683 C   0  0  0  0  0  0  0  0  0  0  0  0
   -1.8922    0.2578   -2.3134 C   0  0  0  0  0  0  0  0  0  0  0  0
   -0.5960   -1.0631   -3.4536 H   0  0  0  0  0  0  0  0  0  0  0  0
    2.3657    0.4128   -2.9384 H   0  0  0  0  0  0  0  0  0  0  0  0
   -0.9248    3.0073   -0.4221 H   0  0  0  0  0  0  0  0  0  0  0  0
   -2.9745    1.7090   -1.1091 H   0  0  0  0  0  0  0  0  0  0  0  0
    2.4186    3.6244    0.1337 N   0  0  0  0  0  0  0  0  0  0  0  0
    3.4658    3.6861    0.4814 N   0  0  0  0  0  0  0  0  0  0  0  0
    6.4371    1.4771   -2.8863 C   0  0  0  0  0  0  0  0  0  0  0  0
    7.7782    1.1545   -3.0786 C   0  0  0  0  0  0  0  0  0  0  0  0
    8.2484    0.7188   -4.3273 C   0  0  0  0  0  0  0  0  0  0  0  0
    7.3384    0.6238   -5.3901 C   0  0  0  0  0  0  0  0  0  0  0  0
    5.9925    0.9424   -5.2177 C   0  0  0  0  0  0  0  0  0  0  0  0
    5.5540    1.3612   -3.9614 C   0  0  0  0  0  0  0  0  0  0  0  0
    6.0763    1.8296   -1.9261 H   0  0  0  0  0  0  0  0  0  0  0  0
    8.4733    1.2485   -2.2480 H   0  0  0  0  0  0  0  0  0  0  0  0
    7.6895    0.3013   -6.3668 H   0  0  0  0  0  0  0  0  0  0  0  0
    5.2904    0.8834   -6.0426 H   0  0  0  0  0  0  0  0  0  0  0  0
    3.8364    1.7798   -3.7317 S   0  0  0  0  0  0  0  0  0  0  0  0
    3.7053    2.7162   -2.6121 O   0  0  0  0  0  0  0  0  0  0  0  0
    3.3034    0.3166   -3.2472 O   0  0  0  0  0  0  0  0  0  0  0  0
    3.2403    2.1073   -5.0263 O   0  0  0  0  0  0  0  0  0  0  0  0
    9.6993    0.3447   -4.5152 C   0  0  0  0  0  0  0  0  0  0  0  0
   10.3583    0.9847   -3.9211 H   0  0  0  0  0  0  0  0  0  0  0  0
    9.8799   -0.6903   -4.1984 H   0  0  0  0  0  0  0  0  0  0  0  0
   10.0008    0.4231   -5.5637 H   0  0  0  0  0  0  0  0  0  0  0  0
   -2.9618   -0.4817   -2.7236 O   0  0  0  0  0  0  0  0  0  0  0  0
   -4.2652   -0.0894   -2.3197 C   0  0  0  0  0  0  0  0  0  0  0  0
   -4.9498   -0.8067   -2.7745 H   0  0  0  0  0  0  0  0  0  0  0  0
   -4.5112    0.9195   -2.6756 H   0  0  0  0  0  0  0  0  0  0  0  0
   -4.3778   -0.1257   -1.2279 H   0  0  0  0  0  0  0  0  0  0  0  0
  1  2  2  0  0  0  0
  1  6  1  0  0  0  0
  2  3  1  0  0  0  0
  3  4  2  0  0  0  0
  4  9  1  0  0  0  0
  5 10  1  0  0  0  0
  5  4  1  0  0  0  0
  6  5  2  0  0  0  0
  7  1  1  0  0  0  0
 11 12  3  0  0  0  0
 13 19  1  0  0  0  0
 14 13  1  0  0  0  0
 14 20  1  0  0  0  0
 15 14  2  0  0  0  0
 16 17  2  0  0  0  0
 16 15  1  0  0  0  0
 17 18  1  0  0  0  0
 18 23  1  0  0  0  0
 18 13  2  0  0  0  0
 21 16  1  0  0  0  0
 22 17  1  0  0  0  0
 23 25  1  0  0  0  0
 23 24  2  0  0  0  0
 25  8  1  0  0  0  0
 26 23  2  0  0  0  0
 27 15  1  0  0  0  0
 27 29  1  0  0  0  0
 27 28  1  0  0  0  0
 30 27  1  0  0  0  0
 31 32  1  0  0  0  0
 31  6  1  0  0  0  0
 32 35  1  0  0  0  0
 33 32  1  0  0  0  0
 34 32  1  0  0  0  0
M  RAD  2   2   2   3   2
M  END
