Coordinates from ORCA-job p-CH3O-Ph-N2-OTs-B3LYP-6-31G_dp-scan-d09-49-n400
 OpenBabel02051708043D

 35 36  0  0  1  0  0  0  0  0999 V2000
    0.0763    0.5793   -3.3511 C   0  0  0  0  0  0  0  0  0  0  0  0
    0.8250    1.8019   -3.7050 C   0  0  1  0  0  0  0  0  0  0  0  0
    0.5316    2.9237   -2.7561 C   0  0  0  0  0  0  0  0  0  0  0  0
   -0.0112    2.6815   -1.4457 C   0  0  0  0  0  0  0  0  0  0  0  0
   -0.4832    1.4506   -1.1232 C   0  0  0  0  0  0  0  0  0  0  0  0
   -0.4756    0.3963   -2.1222 C   0  0  0  0  0  0  0  0  0  0  0  0
    0.0401   -0.2218   -4.0804 H   0  0  0  0  0  0  0  0  0  0  0  0
    0.6773    2.0909   -4.7477 H   0  0  0  0  0  0  0  0  0  0  0  0
   -0.0405    3.5008   -0.7338 H   0  0  0  0  0  0  0  0  0  0  0  0
   -0.8827    1.2711   -0.1336 H   0  0  0  0  0  0  0  0  0  0  0  0
    0.8476    4.1269   -3.1011 N   0  0  0  0  0  0  0  0  0  0  0  0
    1.1269    5.1869   -3.4120 N   0  0  0  0  0  0  0  0  0  0  0  0
    5.1625   -0.0288   -4.6546 C   0  0  0  0  0  0  0  0  0  0  0  0
    6.3967   -0.5203   -4.2343 C   0  0  0  0  0  0  0  0  0  0  0  0
    7.2848    0.2795   -3.4999 C   0  0  0  0  0  0  0  0  0  0  0  0
    6.9093    1.5985   -3.2012 C   0  0  0  0  0  0  0  0  0  0  0  0
    5.6792    2.1081   -3.6110 C   0  0  0  0  0  0  0  0  0  0  0  0
    4.8137    1.2835   -4.3317 C   0  0  0  0  0  0  0  0  0  0  0  0
    4.4823   -0.6418   -5.2363 H   0  0  0  0  0  0  0  0  0  0  0  0
    6.6789   -1.5388   -4.4872 H   0  0  0  0  0  0  0  0  0  0  0  0
    7.5931    2.2372   -2.6474 H   0  0  0  0  0  0  0  0  0  0  0  0
    5.3942    3.1318   -3.3947 H   0  0  0  0  0  0  0  0  0  0  0  0
    3.2413    1.9256   -4.8722 S   0  0  0  0  0  0  0  0  0  0  0  0
    2.3322    1.4549   -3.6053 O   0  0  0  0  0  0  0  0  0  0  0  0
    2.7998    1.2047   -6.0703 O   0  0  0  0  0  0  0  0  0  0  0  0
    3.2917    3.3929   -4.8992 O   0  0  0  0  0  0  0  0  0  0  0  0
    8.6092   -0.2703   -3.0263 C   0  0  0  0  0  0  0  0  0  0  0  0
    8.5344   -0.6357   -1.9944 H   0  0  0  0  0  0  0  0  0  0  0  0
    8.9401   -1.1083   -3.6466 H   0  0  0  0  0  0  0  0  0  0  0  0
    9.3899    0.4968   -3.0427 H   0  0  0  0  0  0  0  0  0  0  0  0
   -1.0475   -0.8200   -1.8817 O   0  0  0  0  0  0  0  0  0  0  0  0
   -1.8099   -1.0180   -0.6993 C   0  0  0  0  0  0  0  0  0  0  0  0
   -2.2224   -2.0252   -0.7798 H   0  0  0  0  0  0  0  0  0  0  0  0
   -2.6351   -0.2996   -0.6165 H   0  0  0  0  0  0  0  0  0  0  0  0
   -1.1897   -0.9626    0.2043 H   0  0  0  0  0  0  0  0  0  0  0  0
  1  6  1  0  0  0  0
  2  8  1  6  0  0  0
  2 24  1  0  0  0  0
  2  1  1  0  0  0  0
  2  3  1  0  0  0  0
  3  4  2  0  0  0  0
  4  5  1  0  0  0  0
  4  9  1  0  0  0  0
  5 10  1  0  0  0  0
  6 31  1  0  0  0  0
  6  5  2  0  0  0  0
  7  1  1  0  0  0  0
 11  3  1  0  0  0  0
 12 11  1  0  0  0  0
 13 18  2  0  0  0  0
 13 14  1  0  0  0  0
 14 15  2  0  0  0  0
 15 16  1  0  0  0  0
 15 27  1  0  0  0  0
 16 21  1  0  0  0  0
 17 22  1  0  0  0  0
 17 16  2  0  0  0  0
 18 17  1  0  0  0  0
 19 13  1  0  0  0  0
 20 14  1  0  0  0  0
 23 18  1  0  0  0  0
 23 24  1  0  0  0  0
 25 23  2  0  0  0  0
 26 23  2  0  0  0  0
 27 28  1  0  0  0  0
 29 27  1  0  0  0  0
 30 27  1  0  0  0  0
 31 32  1  0  0  0  0
 32 34  1  0  0  0  0
 32 35  1  0  0  0  0
 33 32  1  0  0  0  0
M  RAD  3   1   2  11   2  12   3
M  END
