Coordinates from ORCA-job p-CH3O-Ph-N2-OTs-B3LYP-6-31G_dp-scan-d09-49-n400
 OpenBabel02051708043D

 35 35  0  0  0  0  0  0  0  0999 V2000
   -0.6521   -0.7296   -2.2060 C   0  0  0  0  0  0  0  0  0  0  0  0
    0.7026   -0.5968   -2.4801 C   0  0  0  0  0  0  0  0  0  0  0  0
    1.2337    0.6755   -2.7054 C   0  0  0  0  0  0  0  0  0  0  0  0
    0.4250    1.8057   -2.6688 C   0  0  0  0  0  0  0  0  0  0  0  0
   -0.9388    1.6741   -2.3937 C   0  0  0  0  0  0  0  0  0  0  0  0
   -1.4811    0.4033   -2.1609 C   0  0  0  0  0  0  0  0  0  0  0  0
   -1.0957   -1.7030   -2.0239 H   0  0  0  0  0  0  0  0  0  0  0  0
    1.3525   -1.4638   -2.5232 H   0  0  0  0  0  0  0  0  0  0  0  0
    0.8613    2.7807   -2.8559 H   0  0  0  0  0  0  0  0  0  0  0  0
   -1.5596    2.5619   -2.3675 H   0  0  0  0  0  0  0  0  0  0  0  0
    4.4297    2.3029   -0.1070 N   0  0  0  0  0  0  0  0  0  0  0  0
    4.9251    1.3389   -0.3238 N   0  0  0  0  0  0  0  0  0  0  0  0
    5.6523   -0.1631   -3.8911 C   0  0  0  0  0  0  0  0  0  0  0  0
    7.0123    0.0119   -3.6565 C   0  0  0  0  0  0  0  0  0  0  0  0
    7.6031    1.2849   -3.7206 C   0  0  0  0  0  0  0  0  0  0  0  0
    6.7925    2.3851   -4.0306 C   0  0  0  0  0  0  0  0  0  0  0  0
    5.4266    2.2317   -4.2670 C   0  0  0  0  0  0  0  0  0  0  0  0
    4.8705    0.9557   -4.1904 C   0  0  0  0  0  0  0  0  0  0  0  0
    5.1990   -1.1479   -3.8554 H   0  0  0  0  0  0  0  0  0  0  0  0
    7.6282   -0.8528   -3.4230 H   0  0  0  0  0  0  0  0  0  0  0  0
    7.2356    3.3753   -4.0929 H   0  0  0  0  0  0  0  0  0  0  0  0
    4.8004    3.0807   -4.5186 H   0  0  0  0  0  0  0  0  0  0  0  0
    3.1306    0.7437   -4.5042 S   0  0  0  0  0  0  0  0  0  0  0  0
    2.6178    0.8211   -2.9119 O   0  0  0  0  0  0  0  0  0  0  0  0
    2.8759   -0.6067   -5.0021 O   0  0  0  0  0  0  0  0  0  0  0  0
    2.6085    1.9098   -5.2143 O   0  0  0  0  0  0  0  0  0  0  0  0
    9.0821    1.4522   -3.4670 C   0  0  0  0  0  0  0  0  0  0  0  0
    9.6741    0.8850   -4.1942 H   0  0  0  0  0  0  0  0  0  0  0  0
    9.3849    2.5004   -3.5319 H   0  0  0  0  0  0  0  0  0  0  0  0
    9.3561    1.0825   -2.4723 H   0  0  0  0  0  0  0  0  0  0  0  0
   -2.7942    0.1607   -1.8816 O   0  0  0  0  0  0  0  0  0  0  0  0
   -3.6872    1.2623   -1.8368 C   0  0  0  0  0  0  0  0  0  0  0  0
   -4.6691    0.8453   -1.6069 H   0  0  0  0  0  0  0  0  0  0  0  0
   -3.7342    1.7850   -2.8014 H   0  0  0  0  0  0  0  0  0  0  0  0
   -3.4079    1.9793   -1.0535 H   0  0  0  0  0  0  0  0  0  0  0  0
  1  6  1  0  0  0  0
  1  7  1  0  0  0  0
  2  1  2  0  0  0  0
  3  4  2  0  0  0  0
  3  2  1  0  0  0  0
  4  5  1  0  0  0  0
  5 10  1  0  0  0  0
  5  6  2  0  0  0  0
  6 31  1  0  0  0  0
  8  2  1  0  0  0  0
  9  4  1  0  0  0  0
 12 11  3  0  0  0  0
 13 19  1  0  0  0  0
 13 14  2  0  0  0  0
 14 20  1  0  0  0  0
 15 14  1  0  0  0  0
 15 27  1  0  0  0  0
 16 15  2  0  0  0  0
 17 18  2  0  0  0  0
 17 16  1  0  0  0  0
 18 13  1  0  0  0  0
 21 16  1  0  0  0  0
 22 17  1  0  0  0  0
 23 18  1  0  0  0  0
 23 24  1  0  0  0  0
 24  3  1  0  0  0  0
 25 23  2  0  0  0  0
 26 23  2  0  0  0  0
 27 30  1  0  0  0  0
 28 27  1  0  0  0  0
 29 27  1  0  0  0  0
 31 32  1  0  0  0  0
 32 33  1  0  0  0  0
 32 35  1  0  0  0  0
 34 32  1  0  0  0  0
M  END
