Coordinates from ORCA-job p-CH3O-Ph-N2-OTs-B3LYP-6-31G_dp-scan-d09-49-n400
 OpenBabel02051708043D

 35 35  0  0  0  0  0  0  0  0999 V2000
   -0.5146    0.0593   -2.8072 C   0  0  0  0  0  0  0  0  0  0  0  0
    0.5670    0.9424   -2.8825 C   0  0  0  0  0  0  0  0  0  0  0  0
    0.3908    2.0334   -2.0877 C   0  0  0  0  0  0  0  0  0  0  0  0
   -0.6168    2.4129   -1.2474 C   0  0  0  0  0  0  0  0  0  0  0  0
   -1.6751    1.4915   -1.1983 C   0  0  0  0  0  0  0  0  0  0  0  0
   -1.6218    0.3197   -1.9749 C   0  0  0  0  0  0  0  0  0  0  0  0
   -0.5084   -0.8500   -3.3988 H   0  0  0  0  0  0  0  0  0  0  0  0
    1.4389    0.7751   -3.5295 H   0  0  0  0  0  0  0  0  0  0  0  0
   -0.6163    3.3290   -0.6713 H   0  0  0  0  0  0  0  0  0  0  0  0
   -2.5196    1.7098   -0.5561 H   0  0  0  0  0  0  0  0  0  0  0  0
    1.7767    3.3210   -2.1397 N   0  0  0  0  0  0  0  0  0  0  0  0
    2.0422    4.3884   -1.9709 N   0  0  0  0  0  0  0  0  0  0  0  0
    5.7640    0.0009   -4.1834 C   0  0  0  0  0  0  0  0  0  0  0  0
    7.0979   -0.4050   -4.2121 C   0  0  0  0  0  0  0  0  0  0  0  0
    8.1415    0.5304   -4.1813 C   0  0  0  0  0  0  0  0  0  0  0  0
    7.8127    1.8935   -4.1326 C   0  0  0  0  0  0  0  0  0  0  0  0
    6.4843    2.3143   -4.1042 C   0  0  0  0  0  0  0  0  0  0  0  0
    5.4635    1.3621   -4.1265 C   0  0  0  0  0  0  0  0  0  0  0  0
    4.9565   -0.7219   -4.2278 H   0  0  0  0  0  0  0  0  0  0  0  0
    7.3328   -1.4658   -4.2680 H   0  0  0  0  0  0  0  0  0  0  0  0
    8.6083    2.6353   -4.1253 H   0  0  0  0  0  0  0  0  0  0  0  0
    6.2303    3.3692   -4.0884 H   0  0  0  0  0  0  0  0  0  0  0  0
    3.7513    1.9030   -4.0581 S   0  0  0  0  0  0  0  0  0  0  0  0
    3.4388    1.9231   -2.5622 O   0  0  0  0  0  0  0  0  0  0  0  0
    2.9504    0.8425   -4.7373 O   0  0  0  0  0  0  0  0  0  0  0  0
    3.6816    3.2502   -4.6573 O   0  0  0  0  0  0  0  0  0  0  0  0
    9.5850    0.0837   -4.1835 C   0  0  0  0  0  0  0  0  0  0  0  0
    9.9863    0.0359   -3.1630 H   0  0  0  0  0  0  0  0  0  0  0  0
    9.6953   -0.9120   -4.6236 H   0  0  0  0  0  0  0  0  0  0  0  0
   10.2186    0.7759   -4.7475 H   0  0  0  0  0  0  0  0  0  0  0  0
   -2.5916   -0.6238   -1.9934 O   0  0  0  0  0  0  0  0  0  0  0  0
   -3.7440   -0.4430   -1.1768 C   0  0  0  0  0  0  0  0  0  0  0  0
   -4.3725   -1.3169   -1.3527 H   0  0  0  0  0  0  0  0  0  0  0  0
   -4.2961    0.4628   -1.4578 H   0  0  0  0  0  0  0  0  0  0  0  0
   -3.4776   -0.3951   -0.1135 H   0  0  0  0  0  0  0  0  0  0  0  0
  1  6  1  0  0  0  0
  2  1  2  0  0  0  0
  2  3  1  0  0  0  0
  3  4  2  0  0  0  0
  4  5  1  0  0  0  0
  4  9  1  0  0  0  0
  5 10  1  0  0  0  0
  6  5  2  0  0  0  0
  7  1  1  0  0  0  0
  8  2  1  0  0  0  0
 11  3  1  0  0  0  0
 11 12  2  0  0  0  0
 13 18  1  0  0  0  0
 14 13  2  0  0  0  0
 14 15  1  0  0  0  0
 15 16  2  0  0  0  0
 16 21  1  0  0  0  0
 16 17  1  0  0  0  0
 17 22  1  0  0  0  0
 18 17  2  0  0  0  0
 18 23  1  0  0  0  0
 19 13  1  0  0  0  0
 20 14  1  0  0  0  0
 23 24  1  0  0  0  0
 25 23  2  0  0  0  0
 26 23  2  0  0  0  0
 27 15  1  0  0  0  0
 27 28  1  0  0  0  0
 29 27  1  0  0  0  0
 30 27  1  0  0  0  0
 31  6  1  0  0  0  0
 31 32  1  0  0  0  0
 32 35  1  0  0  0  0
 33 32  1  0  0  0  0
 34 32  1  0  0  0  0
M  RAD  2  12   2  24   2
M  END
