Coordinates from ORCA-job p-CH3O-Ph-N2-OTs-B3LYP-6-31G_dp-scan-d09-49-n400
 OpenBabel02051708043D

 35 35  0  0  0  0  0  0  0  0999 V2000
   -0.6326   -0.7220   -2.2208 C   0  0  0  0  0  0  0  0  0  0  0  0
    0.7217   -0.6072   -2.5057 C   0  0  0  0  0  0  0  0  0  0  0  0
    1.2719    0.6599   -2.7144 C   0  0  0  0  0  0  0  0  0  0  0  0
    0.4827    1.8025   -2.6500 C   0  0  0  0  0  0  0  0  0  0  0  0
   -0.8802    1.6893   -2.3630 C   0  0  0  0  0  0  0  0  0  0  0  0
   -1.4418    0.4238   -2.1474 C   0  0  0  0  0  0  0  0  0  0  0  0
   -1.0908   -1.6908   -2.0514 H   0  0  0  0  0  0  0  0  0  0  0  0
    1.3564   -1.4840   -2.5703 H   0  0  0  0  0  0  0  0  0  0  0  0
    0.9338    2.7732   -2.8235 H   0  0  0  0  0  0  0  0  0  0  0  0
   -1.4855    2.5868   -2.3145 H   0  0  0  0  0  0  0  0  0  0  0  0
    3.7940    2.1620   -0.0601 N   0  0  0  0  0  0  0  0  0  0  0  0
    4.4286    1.2594   -0.1275 N   0  0  0  0  0  0  0  0  0  0  0  0
    5.6976   -0.1753   -3.9198 C   0  0  0  0  0  0  0  0  0  0  0  0
    7.0556    0.0204   -3.6886 C   0  0  0  0  0  0  0  0  0  0  0  0
    7.6273    1.3018   -3.7562 C   0  0  0  0  0  0  0  0  0  0  0  0
    6.8002    2.3889   -4.0696 C   0  0  0  0  0  0  0  0  0  0  0  0
    5.4365    2.2147   -4.3033 C   0  0  0  0  0  0  0  0  0  0  0  0
    4.8990    0.9310   -4.2207 C   0  0  0  0  0  0  0  0  0  0  0  0
    5.2589   -1.1666   -3.8811 H   0  0  0  0  0  0  0  0  0  0  0  0
    7.6848   -0.8347   -3.4553 H   0  0  0  0  0  0  0  0  0  0  0  0
    7.2288    3.3853   -4.1371 H   0  0  0  0  0  0  0  0  0  0  0  0
    4.7979    3.0534   -4.5583 H   0  0  0  0  0  0  0  0  0  0  0  0
    3.1609    0.6944   -4.5255 S   0  0  0  0  0  0  0  0  0  0  0  0
    2.6560    0.7880   -2.9312 O   0  0  0  0  0  0  0  0  0  0  0  0
    2.9199   -0.6658   -5.0033 O   0  0  0  0  0  0  0  0  0  0  0  0
    2.6213    1.8443   -5.2485 O   0  0  0  0  0  0  0  0  0  0  0  0
    9.1014    1.4942   -3.4927 C   0  0  0  0  0  0  0  0  0  0  0  0
    9.7066    0.8301   -4.1188 H   0  0  0  0  0  0  0  0  0  0  0  0
    9.4141    2.5228   -3.6905 H   0  0  0  0  0  0  0  0  0  0  0  0
    9.3471    1.2645   -2.4490 H   0  0  0  0  0  0  0  0  0  0  0  0
   -2.7560    0.1984   -1.8592 O   0  0  0  0  0  0  0  0  0  0  0  0
   -3.6301    1.3137   -1.7880 C   0  0  0  0  0  0  0  0  0  0  0  0
   -4.6166    0.9092   -1.5557 H   0  0  0  0  0  0  0  0  0  0  0  0
   -3.6771    1.8529   -2.7434 H   0  0  0  0  0  0  0  0  0  0  0  0
   -3.3321    2.0131   -0.9957 H   0  0  0  0  0  0  0  0  0  0  0  0
  1  6  1  0  0  0  0
  1  7  1  0  0  0  0
  2  1  2  0  0  0  0
  3  4  2  0  0  0  0
  3  2  1  0  0  0  0
  4  5  1  0  0  0  0
  5 10  1  0  0  0  0
  5  6  2  0  0  0  0
  6 31  1  0  0  0  0
  8  2  1  0  0  0  0
  9  4  1  0  0  0  0
 12 11  3  0  0  0  0
 13 19  1  0  0  0  0
 13 14  2  0  0  0  0
 14 20  1  0  0  0  0
 15 14  1  0  0  0  0
 15 27  1  0  0  0  0
 16 15  2  0  0  0  0
 17 18  2  0  0  0  0
 17 16  1  0  0  0  0
 18 13  1  0  0  0  0
 21 16  1  0  0  0  0
 22 17  1  0  0  0  0
 23 18  1  0  0  0  0
 23 24  1  0  0  0  0
 24  3  1  0  0  0  0
 25 23  2  0  0  0  0
 26 23  2  0  0  0  0
 27 30  1  0  0  0  0
 28 27  1  0  0  0  0
 29 27  1  0  0  0  0
 31 32  1  0  0  0  0
 32 33  1  0  0  0  0
 32 35  1  0  0  0  0
 34 32  1  0  0  0  0
M  END
