Coordinates from ORCA-job p-CH3O-Ph-N2-OTs-B3LYP-6-31G_dp-scan-d09-49-n400
 OpenBabel02051708043D

 35 36  0  0  1  0  0  0  0  0999 V2000
    0.0752    0.5433   -3.3382 C   0  0  0  0  0  0  0  0  0  0  0  0
    0.7920    1.7675   -3.7326 C   0  0  1  0  0  0  0  0  0  0  0  0
    0.4519    2.8823   -2.8226 C   0  0  1  0  0  0  0  0  0  0  0  0
   -0.0924    2.7102   -1.5183 C   0  0  0  0  0  0  0  0  0  0  0  0
   -0.5343    1.4766   -1.1453 C   0  0  0  0  0  0  0  0  0  0  0  0
   -0.4803    0.3903   -2.1021 C   0  0  0  0  0  0  0  0  0  0  0  0
    0.0628   -0.2867   -4.0350 H   0  0  0  0  0  0  0  0  0  0  0  0
    0.6769    2.0077   -4.7905 H   0  0  0  0  0  0  0  0  0  0  0  0
   -0.1554    3.5605   -0.8470 H   0  0  0  0  0  0  0  0  0  0  0  0
   -0.9425    1.3271   -0.1549 H   0  0  0  0  0  0  0  0  0  0  0  0
    0.7940    4.1904   -3.2271 N   0  0  0  0  0  0  0  0  0  0  0  0
    1.0669    5.2355   -3.5617 N   0  0  0  0  0  0  0  0  0  0  0  0
    5.1860    0.0236   -4.7059 C   0  0  0  0  0  0  0  0  0  0  0  0
    6.4149   -0.4961   -4.3036 C   0  0  0  0  0  0  0  0  0  0  0  0
    7.2932    0.2521   -3.5062 C   0  0  0  0  0  0  0  0  0  0  0  0
    6.9135    1.5486   -3.1256 C   0  0  0  0  0  0  0  0  0  0  0  0
    5.6890    2.0852   -3.5166 C   0  0  0  0  0  0  0  0  0  0  0  0
    4.8323    1.3116   -4.3016 C   0  0  0  0  0  0  0  0  0  0  0  0
    4.5134   -0.5486   -5.3361 H   0  0  0  0  0  0  0  0  0  0  0  0
    6.7000   -1.4958   -4.6197 H   0  0  0  0  0  0  0  0  0  0  0  0
    7.5900    2.1484   -2.5214 H   0  0  0  0  0  0  0  0  0  0  0  0
    5.4015    3.0926   -3.2367 H   0  0  0  0  0  0  0  0  0  0  0  0
    3.2635    1.9867   -4.8159 S   0  0  0  0  0  0  0  0  0  0  0  0
    2.3386    1.4434   -3.6036 O   0  0  0  0  0  0  0  0  0  0  0  0
    2.8429    1.3488   -6.0688 O   0  0  0  0  0  0  0  0  0  0  0  0
    3.3219    3.4546   -4.7549 O   0  0  0  0  0  0  0  0  0  0  0  0
    8.6117   -0.3280   -3.0526 C   0  0  0  0  0  0  0  0  0  0  0  0
    8.5334   -0.7279   -2.0338 H   0  0  0  0  0  0  0  0  0  0  0  0
    8.9343   -1.1471   -3.7018 H   0  0  0  0  0  0  0  0  0  0  0  0
    9.4004    0.4311   -3.0423 H   0  0  0  0  0  0  0  0  0  0  0  0
   -1.0171   -0.8344   -1.8267 O   0  0  0  0  0  0  0  0  0  0  0  0
   -1.7556   -1.0239   -0.6281 C   0  0  0  0  0  0  0  0  0  0  0  0
   -2.1305   -2.0479   -0.6711 H   0  0  0  0  0  0  0  0  0  0  0  0
   -2.6062   -0.3346   -0.5560 H   0  0  0  0  0  0  0  0  0  0  0  0
   -1.1253   -0.9156    0.2638 H   0  0  0  0  0  0  0  0  0  0  0  0
  1  6  2  0  0  0  0
  2  8  1  6  0  0  0
  2 24  1  0  0  0  0
  2  1  1  0  0  0  0
  2  3  1  0  0  0  0
  3 11  1  1  0  0  0
  3  4  1  0  0  0  0
  4  5  2  0  0  0  0
  4  9  1  0  0  0  0
  5 10  1  0  0  0  0
  6 31  1  0  0  0  0
  6  5  1  0  0  0  0
  7  1  1  0  0  0  0
 12 11  1  0  0  0  0
 13 14  2  0  0  0  0
 13 18  1  0  0  0  0
 14 15  1  0  0  0  0
 15 16  2  0  0  0  0
 15 27  1  0  0  0  0
 16 21  1  0  0  0  0
 17 22  1  0  0  0  0
 17 16  1  0  0  0  0
 18 17  2  0  0  0  0
 19 13  1  0  0  0  0
 20 14  1  0  0  0  0
 23 26  2  0  0  0  0
 23 18  1  0  0  0  0
 23 24  1  0  0  0  0
 25 23  2  0  0  0  0
 27 30  1  0  0  0  0
 27 28  1  0  0  0  0
 29 27  1  0  0  0  0
 31 32  1  0  0  0  0
 32 34  1  0  0  0  0
 32 35  1  0  0  0  0
 33 32  1  0  0  0  0
M  RAD  3   3   2  11   2  12   3
M  END
