Coordinates from ORCA-job p-CH3O-Ph-N2-OTs-B3LYP-6-31G_dp-scan-d09-49-n400
 OpenBabel02051708043D

 35 35  0  0  0  0  0  0  0  0999 V2000
   -0.6579   -0.7318   -2.1987 C   0  0  0  0  0  0  0  0  0  0  0  0
    0.6968   -0.5923   -2.4701 C   0  0  0  0  0  0  0  0  0  0  0  0
    1.2200    0.6815   -2.7049 C   0  0  0  0  0  0  0  0  0  0  0  0
    0.4039    1.8065   -2.6807 C   0  0  0  0  0  0  0  0  0  0  0  0
   -0.9599    1.6682   -2.4087 C   0  0  0  0  0  0  0  0  0  0  0  0
   -1.4945    0.3960   -2.1662 C   0  0  0  0  0  0  0  0  0  0  0  0
   -1.0954   -1.7065   -2.0093 H   0  0  0  0  0  0  0  0  0  0  0  0
    1.3526   -1.4551   -2.5035 H   0  0  0  0  0  0  0  0  0  0  0  0
    0.8341    2.7827   -2.8752 H   0  0  0  0  0  0  0  0  0  0  0  0
   -1.5865    2.5521   -2.3923 H   0  0  0  0  0  0  0  0  0  0  0  0
    4.6499    2.3465   -0.0969 N   0  0  0  0  0  0  0  0  0  0  0  0
    5.1007    1.3645   -0.3300 N   0  0  0  0  0  0  0  0  0  0  0  0
    5.6359   -0.1581   -3.8866 C   0  0  0  0  0  0  0  0  0  0  0  0
    6.9969    0.0086   -3.6518 C   0  0  0  0  0  0  0  0  0  0  0  0
    7.5949    1.2783   -3.7130 C   0  0  0  0  0  0  0  0  0  0  0  0
    6.7902    2.3841   -4.0188 C   0  0  0  0  0  0  0  0  0  0  0  0
    5.4233    2.2390   -4.2550 C   0  0  0  0  0  0  0  0  0  0  0  0
    4.8601    0.9659   -4.1825 C   0  0  0  0  0  0  0  0  0  0  0  0
    5.1771   -1.1404   -3.8536 H   0  0  0  0  0  0  0  0  0  0  0  0
    7.6078   -0.8602   -3.4208 H   0  0  0  0  0  0  0  0  0  0  0  0
    7.2389    3.3720   -4.0781 H   0  0  0  0  0  0  0  0  0  0  0  0
    4.8017    3.0923   -4.5036 H   0  0  0  0  0  0  0  0  0  0  0  0
    3.1196    0.7635   -4.4998 S   0  0  0  0  0  0  0  0  0  0  0  0
    2.6039    0.8333   -2.9083 O   0  0  0  0  0  0  0  0  0  0  0  0
    2.8599   -0.5827   -5.0064 O   0  0  0  0  0  0  0  0  0  0  0  0
    2.6041    1.9362   -5.2039 O   0  0  0  0  0  0  0  0  0  0  0  0
    9.0754    1.4364   -3.4624 C   0  0  0  0  0  0  0  0  0  0  0  0
    9.6625    0.8863   -4.2068 H   0  0  0  0  0  0  0  0  0  0  0  0
    9.3802    2.4852   -3.5033 H   0  0  0  0  0  0  0  0  0  0  0  0
    9.3539    1.0413   -2.4788 H   0  0  0  0  0  0  0  0  0  0  0  0
   -2.8068    0.1471   -1.8887 O   0  0  0  0  0  0  0  0  0  0  0  0
   -3.7070    1.2433   -1.8554 C   0  0  0  0  0  0  0  0  0  0  0  0
   -4.6869    0.8219   -1.6248 H   0  0  0  0  0  0  0  0  0  0  0  0
   -3.7546    1.7579   -2.8242 H   0  0  0  0  0  0  0  0  0  0  0  0
   -3.4344    1.9684   -1.0772 H   0  0  0  0  0  0  0  0  0  0  0  0
  1  6  1  0  0  0  0
  1  7  1  0  0  0  0
  2  1  2  0  0  0  0
  3  4  2  0  0  0  0
  3  2  1  0  0  0  0
  4  5  1  0  0  0  0
  5 10  1  0  0  0  0
  5  6  2  0  0  0  0
  6 31  1  0  0  0  0
  8  2  1  0  0  0  0
  9  4  1  0  0  0  0
 12 11  3  0  0  0  0
 13 19  1  0  0  0  0
 13 14  2  0  0  0  0
 14 20  1  0  0  0  0
 15 14  1  0  0  0  0
 15 27  1  0  0  0  0
 16 15  2  0  0  0  0
 17 18  2  0  0  0  0
 17 16  1  0  0  0  0
 18 13  1  0  0  0  0
 21 16  1  0  0  0  0
 22 17  1  0  0  0  0
 23 18  1  0  0  0  0
 23 24  1  0  0  0  0
 24  3  1  0  0  0  0
 25 23  2  0  0  0  0
 26 23  2  0  0  0  0
 27 30  1  0  0  0  0
 28 27  1  0  0  0  0
 29 27  1  0  0  0  0
 31 32  1  0  0  0  0
 32 33  1  0  0  0  0
 32 35  1  0  0  0  0
 34 32  1  0  0  0  0
M  END
