Coordinates from ORCA-job p-CH3O-Ph-N2-OTs-B3LYP-6-31G_dp-scan-d09-49-n400
 OpenBabel02051708043D

 35 36  0  0  1  0  0  0  0  0999 V2000
    0.0539    0.6229   -3.3712 C   0  0  0  0  0  0  0  0  0  0  0  0
    0.8470    1.8326   -3.6778 C   0  0  1  0  0  0  0  0  0  0  0  0
    0.6112    2.9453   -2.6796 C   0  0  0  0  0  0  0  0  0  0  0  0
    0.0740    2.6374   -1.3677 C   0  0  0  0  0  0  0  0  0  0  0  0
   -0.4420    1.4146   -1.1019 C   0  0  0  0  0  0  0  0  0  0  0  0
   -0.4942    0.4059   -2.1490 C   0  0  0  0  0  0  0  0  0  0  0  0
   -0.0186   -0.1398   -4.1383 H   0  0  0  0  0  0  0  0  0  0  0  0
    0.6822    2.1813   -4.7002 H   0  0  0  0  0  0  0  0  0  0  0  0
    0.0919    3.4190   -0.6138 H   0  0  0  0  0  0  0  0  0  0  0  0
   -0.8314    1.2021   -0.1145 H   0  0  0  0  0  0  0  0  0  0  0  0
    0.9326    4.0668   -2.9635 N   0  0  0  0  0  0  0  0  0  0  0  0
    1.2407    5.1363   -3.2381 N   0  0  0  0  0  0  0  0  0  0  0  0
    5.1413   -0.0865   -4.5802 C   0  0  0  0  0  0  0  0  0  0  0  0
    6.3839   -0.5414   -4.1448 C   0  0  0  0  0  0  0  0  0  0  0  0
    7.2854    0.3166   -3.4965 C   0  0  0  0  0  0  0  0  0  0  0  0
    6.9141    1.6555   -3.3003 C   0  0  0  0  0  0  0  0  0  0  0  0
    5.6749    2.1297   -3.7262 C   0  0  0  0  0  0  0  0  0  0  0  0
    4.7973    1.2483   -4.3594 C   0  0  0  0  0  0  0  0  0  0  0  0
    4.4513   -0.7456   -5.0959 H   0  0  0  0  0  0  0  0  0  0  0  0
    6.6629   -1.5774   -4.3185 H   0  0  0  0  0  0  0  0  0  0  0  0
    7.6073    2.3376   -2.8146 H   0  0  0  0  0  0  0  0  0  0  0  0
    5.3918    3.1676   -3.5887 H   0  0  0  0  0  0  0  0  0  0  0  0
    3.2158    1.8468   -4.9208 S   0  0  0  0  0  0  0  0  0  0  0  0
    2.3257    1.4474   -3.6082 O   0  0  0  0  0  0  0  0  0  0  0  0
    2.7598    1.0482   -6.0616 O   0  0  0  0  0  0  0  0  0  0  0  0
    3.2520    3.3091   -5.0348 O   0  0  0  0  0  0  0  0  0  0  0  0
    8.6192   -0.1943   -3.0060 C   0  0  0  0  0  0  0  0  0  0  0  0
    8.5476   -0.5387   -1.9666 H   0  0  0  0  0  0  0  0  0  0  0  0
    8.9694   -1.0394   -3.6059 H   0  0  0  0  0  0  0  0  0  0  0  0
    9.3839    0.5880   -3.0372 H   0  0  0  0  0  0  0  0  0  0  0  0
   -1.1167   -0.7932   -1.9538 O   0  0  0  0  0  0  0  0  0  0  0  0
   -1.8824   -1.0066   -0.7758 C   0  0  0  0  0  0  0  0  0  0  0  0
   -2.3508   -1.9842   -0.9023 H   0  0  0  0  0  0  0  0  0  0  0  0
   -2.6657   -0.2486   -0.6506 H   0  0  0  0  0  0  0  0  0  0  0  0
   -1.2550   -1.0313    0.1242 H   0  0  0  0  0  0  0  0  0  0  0  0
  1  6  1  0  0  0  0
  2  8  1  6  0  0  0
  2 24  1  0  0  0  0
  2  1  1  0  0  0  0
  2  3  1  0  0  0  0
  3  4  2  0  0  0  0
  4  5  1  0  0  0  0
  4  9  1  0  0  0  0
  5 10  1  0  0  0  0
  6 31  1  0  0  0  0
  6  5  2  0  0  0  0
  7  1  1  0  0  0  0
 11  3  1  0  0  0  0
 12 11  1  0  0  0  0
 13 18  2  0  0  0  0
 13 14  1  0  0  0  0
 14 15  2  0  0  0  0
 15 16  1  0  0  0  0
 15 27  1  0  0  0  0
 16 21  1  0  0  0  0
 17 22  1  0  0  0  0
 17 16  2  0  0  0  0
 18 17  1  0  0  0  0
 19 13  1  0  0  0  0
 20 14  1  0  0  0  0
 23 18  1  0  0  0  0
 23 24  1  0  0  0  0
 25 23  2  0  0  0  0
 26 23  2  0  0  0  0
 27 28  1  0  0  0  0
 29 27  1  0  0  0  0
 30 27  1  0  0  0  0
 31 32  1  0  0  0  0
 32 34  1  0  0  0  0
 32 35  1  0  0  0  0
 33 32  1  0  0  0  0
M  RAD  3   1   2  11   2  12   3
M  END
