Coordinates from ORCA-job p-CH3O-Ph-N2-OTs-B3LYP-6-31G_dp-scan-d09-49-n400
 OpenBabel02051708043D

 35 35  0  0  0  0  0  0  0  0999 V2000
   -0.6674   -0.7335   -2.1945 C   0  0  0  0  0  0  0  0  0  0  0  0
    0.6871   -0.5899   -2.4645 C   0  0  0  0  0  0  0  0  0  0  0  0
    1.2052    0.6844   -2.7076 C   0  0  0  0  0  0  0  0  0  0  0  0
    0.3842    1.8060   -2.6931 C   0  0  0  0  0  0  0  0  0  0  0  0
   -0.9796    1.6635   -2.4228 C   0  0  0  0  0  0  0  0  0  0  0  0
   -1.5091    0.3908   -2.1718 C   0  0  0  0  0  0  0  0  0  0  0  0
   -1.1009   -1.7087   -1.9985 H   0  0  0  0  0  0  0  0  0  0  0  0
    1.3469   -1.4500   -2.4904 H   0  0  0  0  0  0  0  0  0  0  0  0
    0.8103    2.7826   -2.8942 H   0  0  0  0  0  0  0  0  0  0  0  0
   -1.6101    2.5448   -2.4141 H   0  0  0  0  0  0  0  0  0  0  0  0
    4.9066    2.3774   -0.1075 N   0  0  0  0  0  0  0  0  0  0  0  0
    5.3087    1.3764   -0.3484 N   0  0  0  0  0  0  0  0  0  0  0  0
    5.6203   -0.1552   -3.8847 C   0  0  0  0  0  0  0  0  0  0  0  0
    6.9811    0.0075   -3.6457 C   0  0  0  0  0  0  0  0  0  0  0  0
    7.5822    1.2761   -3.7006 C   0  0  0  0  0  0  0  0  0  0  0  0
    6.7807    2.3848   -4.0039 C   0  0  0  0  0  0  0  0  0  0  0  0
    5.4140    2.2438   -4.2442 C   0  0  0  0  0  0  0  0  0  0  0  0
    4.8478    0.9716   -4.1782 C   0  0  0  0  0  0  0  0  0  0  0  0
    5.1592   -1.1367   -3.8565 H   0  0  0  0  0  0  0  0  0  0  0  0
    7.5895   -0.8636   -3.4164 H   0  0  0  0  0  0  0  0  0  0  0  0
    7.2316    3.3720   -4.0581 H   0  0  0  0  0  0  0  0  0  0  0  0
    4.7950    3.0994   -4.4909 H   0  0  0  0  0  0  0  0  0  0  0  0
    3.1073    0.7738   -4.4995 S   0  0  0  0  0  0  0  0  0  0  0  0
    2.5890    0.8400   -2.9091 O   0  0  0  0  0  0  0  0  0  0  0  0
    2.8457   -0.5703   -5.0107 O   0  0  0  0  0  0  0  0  0  0  0  0
    2.5959    1.9497   -5.2013 O   0  0  0  0  0  0  0  0  0  0  0  0
    9.0626    1.4297   -3.4470 C   0  0  0  0  0  0  0  0  0  0  0  0
    9.6497    0.8895   -4.1988 H   0  0  0  0  0  0  0  0  0  0  0  0
    9.3681    2.4788   -3.4736 H   0  0  0  0  0  0  0  0  0  0  0  0
    9.3404    1.0210   -2.4689 H   0  0  0  0  0  0  0  0  0  0  0  0
   -2.8208    0.1382   -1.8949 O   0  0  0  0  0  0  0  0  0  0  0  0
   -3.7257    1.2307   -1.8707 C   0  0  0  0  0  0  0  0  0  0  0  0
   -4.7042    0.8066   -1.6389 H   0  0  0  0  0  0  0  0  0  0  0  0
   -3.7739    1.7383   -2.8431 H   0  0  0  0  0  0  0  0  0  0  0  0
   -3.4576    1.9622   -1.0971 H   0  0  0  0  0  0  0  0  0  0  0  0
  1  6  1  0  0  0  0
  1  7  1  0  0  0  0
  2  1  2  0  0  0  0
  3  4  2  0  0  0  0
  3  2  1  0  0  0  0
  4  5  1  0  0  0  0
  5 10  1  0  0  0  0
  5  6  2  0  0  0  0
  6 31  1  0  0  0  0
  8  2  1  0  0  0  0
  9  4  1  0  0  0  0
 12 11  3  0  0  0  0
 13 19  1  0  0  0  0
 13 14  2  0  0  0  0
 14 20  1  0  0  0  0
 15 14  1  0  0  0  0
 15 27  1  0  0  0  0
 16 15  2  0  0  0  0
 17 18  2  0  0  0  0
 17 16  1  0  0  0  0
 18 13  1  0  0  0  0
 21 16  1  0  0  0  0
 22 17  1  0  0  0  0
 23 18  1  0  0  0  0
 23 24  1  0  0  0  0
 24  3  1  0  0  0  0
 25 23  2  0  0  0  0
 26 23  2  0  0  0  0
 27 30  1  0  0  0  0
 28 27  1  0  0  0  0
 29 27  1  0  0  0  0
 31 32  1  0  0  0  0
 32 33  1  0  0  0  0
 32 35  1  0  0  0  0
 34 32  1  0  0  0  0
M  END
