Coordinates from ORCA-job p-CH3O-Ph-N2-OTs-B3LYP-6-31G_dp-scan-d09-49-n400
 OpenBabel02051708043D

 35 34  0  0  0  0  0  0  0  0999 V2000
   -0.3977    0.1707   -2.7257 C   0  0  0  0  0  0  0  0  0  0  0  0
    0.6087    0.9527   -2.1363 C   0  0  0  0  0  0  0  0  0  0  0  0
    0.2009    1.7773   -1.2613 C   0  0  0  0  0  0  0  0  0  0  0  0
   -0.9847    2.1565   -0.7059 C   0  0  0  0  0  0  0  0  0  0  0  0
   -2.0082    1.3786   -1.2895 C   0  0  0  0  0  0  0  0  0  0  0  0
   -1.7206    0.4066   -2.2781 C   0  0  0  0  0  0  0  0  0  0  0  0
   -0.2226   -0.5786   -3.4920 H   0  0  0  0  0  0  0  0  0  0  0  0
    2.3483    0.7325   -2.7469 H   0  0  0  0  0  0  0  0  0  0  0  0
   -1.1562    2.9117    0.0506 H   0  0  0  0  0  0  0  0  0  0  0  0
   -3.0265    1.5458   -0.9587 H   0  0  0  0  0  0  0  0  0  0  0  0
    1.8076    3.0861   -0.1455 N   0  0  0  0  0  0  0  0  0  0  0  0
    2.8789    3.2004    0.1035 N   0  0  0  0  0  0  0  0  0  0  0  0
    6.4720    1.6539   -2.9766 C   0  0  0  0  0  0  0  0  0  0  0  0
    7.7953    1.2611   -3.1660 C   0  0  0  0  0  0  0  0  0  0  0  0
    8.2029    0.6315   -4.3519 C   0  0  0  0  0  0  0  0  0  0  0  0
    7.2484    0.4134   -5.3566 C   0  0  0  0  0  0  0  0  0  0  0  0
    5.9207    0.8006   -5.1862 C   0  0  0  0  0  0  0  0  0  0  0  0
    5.5439    1.4135   -3.9906 C   0  0  0  0  0  0  0  0  0  0  0  0
    6.1592    2.1542   -2.0666 H   0  0  0  0  0  0  0  0  0  0  0  0
    8.5255    1.4528   -2.3838 H   0  0  0  0  0  0  0  0  0  0  0  0
    7.5508   -0.0592   -6.2876 H   0  0  0  0  0  0  0  0  0  0  0  0
    5.1857    0.6471   -5.9692 H   0  0  0  0  0  0  0  0  0  0  0  0
    3.8489    1.9232   -3.7653 S   0  0  0  0  0  0  0  0  0  0  0  0
    3.7929    2.9971   -2.7677 O   0  0  0  0  0  0  0  0  0  0  0  0
    3.2767    0.5612   -3.0937 O   0  0  0  0  0  0  0  0  0  0  0  0
    3.2290    2.1207   -5.0757 O   0  0  0  0  0  0  0  0  0  0  0  0
    9.6332    0.1828   -4.5354 C   0  0  0  0  0  0  0  0  0  0  0  0
   10.3280    0.8218   -3.9829 H   0  0  0  0  0  0  0  0  0  0  0  0
    9.7714   -0.8424   -4.1688 H   0  0  0  0  0  0  0  0  0  0  0  0
    9.9240    0.1925   -5.5901 H   0  0  0  0  0  0  0  0  0  0  0  0
   -2.6718   -0.3679   -2.8715 O   0  0  0  0  0  0  0  0  0  0  0  0
   -4.0309   -0.1895   -2.5031 C   0  0  0  0  0  0  0  0  0  0  0  0
   -4.6016   -0.8991   -3.1036 H   0  0  0  0  0  0  0  0  0  0  0  0
   -4.3783    0.8287   -2.7223 H   0  0  0  0  0  0  0  0  0  0  0  0
   -4.1934   -0.4065   -1.4390 H   0  0  0  0  0  0  0  0  0  0  0  0
  1  6  2  0  0  0  0
  1  2  1  0  0  0  0
  2  3  2  0  0  0  0
  3  4  1  0  0  0  0
  4  9  1  0  0  0  0
  5 10  1  0  0  0  0
  5  4  2  0  0  0  0
  6  5  1  0  0  0  0
  7  1  1  0  0  0  0
 11 12  3  0  0  0  0
 13 19  1  0  0  0  0
 14 13  1  0  0  0  0
 14 20  1  0  0  0  0
 15 14  2  0  0  0  0
 16 17  2  0  0  0  0
 16 15  1  0  0  0  0
 17 18  1  0  0  0  0
 18 23  1  0  0  0  0
 18 13  2  0  0  0  0
 21 16  1  0  0  0  0
 22 17  1  0  0  0  0
 23 25  1  0  0  0  0
 23 24  2  0  0  0  0
 25  8  1  0  0  0  0
 26 23  2  0  0  0  0
 27 15  1  0  0  0  0
 27 29  1  0  0  0  0
 27 28  1  0  0  0  0
 30 27  1  0  0  0  0
 31 32  1  0  0  0  0
 31  6  1  0  0  0  0
 32 35  1  0  0  0  0
 33 32  1  0  0  0  0
 34 32  1  0  0  0  0
M  RAD  2   2   2   3   2
M  END
