Coordinates from ORCA-job p-CH3O-Ph-N2-OTs-B3LYP-6-31G_dp-scan-d09-49-n400
 OpenBabel02051708043D

 35 35  0  0  0  0  0  0  0  0999 V2000
   -0.6810   -0.7278   -2.1938 C   0  0  0  0  0  0  0  0  0  0  0  0
    0.6742   -0.5962   -2.4667 C   0  0  0  0  0  0  0  0  0  0  0  0
    1.2025    0.6732   -2.7136 C   0  0  0  0  0  0  0  0  0  0  0  0
    0.3909    1.8017   -2.6998 C   0  0  0  0  0  0  0  0  0  0  0  0
   -0.9733    1.6714   -2.4261 C   0  0  0  0  0  0  0  0  0  0  0  0
   -1.5131    0.4037   -2.1715 C   0  0  0  0  0  0  0  0  0  0  0  0
   -1.1222   -1.6989   -1.9951 H   0  0  0  0  0  0  0  0  0  0  0  0
    1.3266   -1.4619   -2.4921 H   0  0  0  0  0  0  0  0  0  0  0  0
    0.8248    2.7743   -2.9039 H   0  0  0  0  0  0  0  0  0  0  0  0
   -1.5965    2.5579   -2.4179 H   0  0  0  0  0  0  0  0  0  0  0  0
    4.9936    2.3214   -0.1583 N   0  0  0  0  0  0  0  0  0  0  0  0
    5.3918    1.3164   -0.3891 N   0  0  0  0  0  0  0  0  0  0  0  0
    5.6357   -0.1700   -3.9046 C   0  0  0  0  0  0  0  0  0  0  0  0
    6.9925    0.0143   -3.6569 C   0  0  0  0  0  0  0  0  0  0  0  0
    7.5698    1.2946   -3.6882 C   0  0  0  0  0  0  0  0  0  0  0  0
    6.7490    2.3928   -3.9789 C   0  0  0  0  0  0  0  0  0  0  0  0
    5.3866    2.2299   -4.2288 C   0  0  0  0  0  0  0  0  0  0  0  0
    4.8438    0.9465   -4.1844 C   0  0  0  0  0  0  0  0  0  0  0  0
    5.1922   -1.1598   -3.8932 H   0  0  0  0  0  0  0  0  0  0  0  0
    7.6160   -0.8488   -3.4386 H   0  0  0  0  0  0  0  0  0  0  0  0
    7.1817    3.3890   -4.0152 H   0  0  0  0  0  0  0  0  0  0  0  0
    4.7535    3.0779   -4.4660 H   0  0  0  0  0  0  0  0  0  0  0  0
    3.1067    0.7236   -4.5062 S   0  0  0  0  0  0  0  0  0  0  0  0
    2.5870    0.8181   -2.9180 O   0  0  0  0  0  0  0  0  0  0  0  0
    2.8610   -0.6335   -4.9904 O   0  0  0  0  0  0  0  0  0  0  0  0
    2.5832    1.8792   -5.2323 O   0  0  0  0  0  0  0  0  0  0  0  0
    9.0455    1.4720   -3.4226 C   0  0  0  0  0  0  0  0  0  0  0  0
    9.6473    0.9430   -4.1705 H   0  0  0  0  0  0  0  0  0  0  0  0
    9.3339    2.5260   -3.4444 H   0  0  0  0  0  0  0  0  0  0  0  0
    9.3220    1.0658   -2.4430 H   0  0  0  0  0  0  0  0  0  0  0  0
   -2.8263    0.1627   -1.8914 O   0  0  0  0  0  0  0  0  0  0  0  0
   -3.7220    1.2629   -1.8679 C   0  0  0  0  0  0  0  0  0  0  0  0
   -4.7035    0.8476   -1.6332 H   0  0  0  0  0  0  0  0  0  0  0  0
   -3.7678    1.7688   -2.8413 H   0  0  0  0  0  0  0  0  0  0  0  0
   -3.4461    1.9938   -1.0963 H   0  0  0  0  0  0  0  0  0  0  0  0
  1  6  1  0  0  0  0
  1  7  1  0  0  0  0
  2  1  2  0  0  0  0
  3  4  2  0  0  0  0
  3  2  1  0  0  0  0
  4  5  1  0  0  0  0
  5 10  1  0  0  0  0
  5  6  2  0  0  0  0
  6 31  1  0  0  0  0
  8  2  1  0  0  0  0
  9  4  1  0  0  0  0
 12 11  3  0  0  0  0
 13 19  1  0  0  0  0
 13 14  2  0  0  0  0
 14 20  1  0  0  0  0
 15 14  1  0  0  0  0
 15 27  1  0  0  0  0
 16 15  2  0  0  0  0
 17 18  2  0  0  0  0
 17 16  1  0  0  0  0
 18 13  1  0  0  0  0
 21 16  1  0  0  0  0
 22 17  1  0  0  0  0
 23 18  1  0  0  0  0
 23 24  1  0  0  0  0
 24  3  1  0  0  0  0
 25 23  2  0  0  0  0
 26 23  2  0  0  0  0
 27 30  1  0  0  0  0
 28 27  1  0  0  0  0
 29 27  1  0  0  0  0
 31 32  1  0  0  0  0
 32 33  1  0  0  0  0
 32 35  1  0  0  0  0
 34 32  1  0  0  0  0
M  END
