Coordinates from ORCA-job p-CH3O-Ph-N2-OTs-B3LYP-6-31G_dp-scan-d09-49-n400
 OpenBabel02051708043D

 35 35  0  0  0  0  0  0  0  0999 V2000
   -0.4665   -0.0014   -2.5667 C   0  0  0  0  0  0  0  0  0  0  0  0
    0.4067    0.9275   -3.1114 C   0  0  0  0  0  0  0  0  0  0  0  0
    0.1345    2.2541   -2.7874 C   0  0  0  0  0  0  0  0  0  0  0  0
   -0.9012    2.7151   -1.9888 C   0  0  0  0  0  0  0  0  0  0  0  0
   -1.7521    1.7561   -1.4474 C   0  0  0  0  0  0  0  0  0  0  0  0
   -1.5355    0.3944   -1.7361 C   0  0  0  0  0  0  0  0  0  0  0  0
   -0.3310   -1.0590   -2.7653 H   0  0  0  0  0  0  0  0  0  0  0  0
    1.2527    0.6454   -3.7412 H   0  0  0  0  0  0  0  0  0  0  0  0
   -1.0389    3.7712   -1.7891 H   0  0  0  0  0  0  0  0  0  0  0  0
   -2.5697    2.0742   -0.8132 H   0  0  0  0  0  0  0  0  0  0  0  0
    1.0578    3.3726   -3.3931 N   0  0  0  0  0  0  0  0  0  0  0  0
    1.7872    4.0522   -3.9011 N   0  0  0  0  0  0  0  0  0  0  0  0
    5.9943    0.5019   -5.1131 C   0  0  0  0  0  0  0  0  0  0  0  0
    7.3513    0.1831   -5.1274 C   0  0  0  0  0  0  0  0  0  0  0  0
    8.1893    0.5302   -4.0575 C   0  0  0  0  0  0  0  0  0  0  0  0
    7.6286    1.2100   -2.9666 C   0  0  0  0  0  0  0  0  0  0  0  0
    6.2733    1.5363   -2.9399 C   0  0  0  0  0  0  0  0  0  0  0  0
    5.4598    1.1802   -4.0164 C   0  0  0  0  0  0  0  0  0  0  0  0
    5.3445    0.2201   -5.9351 H   0  0  0  0  0  0  0  0  0  0  0  0
    7.7677   -0.3456   -5.9821 H   0  0  0  0  0  0  0  0  0  0  0  0
    8.2623    1.4861   -2.1265 H   0  0  0  0  0  0  0  0  0  0  0  0
    5.8357    2.0504   -2.0904 H   0  0  0  0  0  0  0  0  0  0  0  0
    3.7259    1.6441   -4.0095 S   0  0  0  0  0  0  0  0  0  0  0  0
    3.3060    1.7429   -2.5831 O   0  0  0  0  0  0  0  0  0  0  0  0
    3.0056    0.5798   -4.7681 O   0  0  0  0  0  0  0  0  0  0  0  0
    3.6587    2.9878   -4.6978 O   0  0  0  0  0  0  0  0  0  0  0  0
    9.6523    0.1517   -4.0654 C   0  0  0  0  0  0  0  0  0  0  0  0
    9.8081   -0.8380   -3.6161 H   0  0  0  0  0  0  0  0  0  0  0  0
   10.0505    0.1103   -5.0841 H   0  0  0  0  0  0  0  0  0  0  0  0
   10.2545    0.8648   -3.4939 H   0  0  0  0  0  0  0  0  0  0  0  0
   -2.3014   -0.6099   -1.2644 O   0  0  0  0  0  0  0  0  0  0  0  0
   -3.3990   -0.3055   -0.4059 C   0  0  0  0  0  0  0  0  0  0  0  0
   -3.8515   -1.2645   -0.1544 H   0  0  0  0  0  0  0  0  0  0  0  0
   -4.1393    0.3244   -0.9140 H   0  0  0  0  0  0  0  0  0  0  0  0
   -3.0608    0.1886    0.5124 H   0  0  0  0  0  0  0  0  0  0  0  0
  1  6  2  0  0  0  0
  2  3  2  0  0  0  0
  2  1  1  0  0  0  0
  3  4  1  0  0  0  0
  4  9  1  0  0  0  0
  4  5  2  0  0  0  0
  5 10  1  0  0  0  0
  6  5  1  0  0  0  0
  6 31  1  0  0  0  0
  7  1  1  0  0  0  0
  8  2  1  0  0  0  0
 11  3  1  0  0  0  0
 12 11  1  0  0  0  0
 13 18  1  0  0  0  0
 14 13  2  0  0  0  0
 14 15  1  0  0  0  0
 15 16  2  0  0  0  0
 16 17  1  0  0  0  0
 16 21  1  0  0  0  0
 17 22  1  0  0  0  0
 18 23  1  0  0  0  0
 18 17  2  0  0  0  0
 19 13  1  0  0  0  0
 20 14  1  0  0  0  0
 23 24  1  0  0  0  0
 25 23  2  0  0  0  0
 26 23  2  0  0  0  0
 27 15  1  0  0  0  0
 27 28  1  0  0  0  0
 27 30  1  0  0  0  0
 29 27  1  0  0  0  0
 31 32  1  0  0  0  0
 32 33  1  0  0  0  0
 32 35  1  0  0  0  0
 34 32  1  0  0  0  0
M  RAD  3  11   2  12   3  24   2
M  END
