Coordinates from ORCA-job p-CH3O-Ph-N2-OTs-B3LYP-6-31G_dp-scan-d09-49-n400
 OpenBabel02051708043D

 35 35  0  0  0  0  0  0  0  0999 V2000
   -0.6207   -0.7096   -2.2065 C   0  0  0  0  0  0  0  0  0  0  0  0
    0.7330   -0.6008   -2.4961 C   0  0  0  0  0  0  0  0  0  0  0  0
    1.2860    0.6633   -2.7155 C   0  0  0  0  0  0  0  0  0  0  0  0
    0.5010    1.8088   -2.6562 C   0  0  0  0  0  0  0  0  0  0  0  0
   -0.8615    1.7014   -2.3644 C   0  0  0  0  0  0  0  0  0  0  0  0
   -1.4262    0.4392   -2.1386 C   0  0  0  0  0  0  0  0  0  0  0  0
   -1.0812   -1.6759   -2.0290 H   0  0  0  0  0  0  0  0  0  0  0  0
    1.3651   -1.4797   -2.5564 H   0  0  0  0  0  0  0  0  0  0  0  0
    0.9548    2.7768   -2.8375 H   0  0  0  0  0  0  0  0  0  0  0  0
   -1.4641    2.6010   -2.3203 H   0  0  0  0  0  0  0  0  0  0  0  0
    3.5625    2.0081   -0.0321 N   0  0  0  0  0  0  0  0  0  0  0  0
    4.2468    1.1401   -0.0088 N   0  0  0  0  0  0  0  0  0  0  0  0
    5.7162   -0.1757   -3.9245 C   0  0  0  0  0  0  0  0  0  0  0  0
    7.0732    0.0312   -3.6963 C   0  0  0  0  0  0  0  0  0  0  0  0
    7.6356    1.3161   -3.7728 C   0  0  0  0  0  0  0  0  0  0  0  0
    6.8004    2.3953   -4.0924 C   0  0  0  0  0  0  0  0  0  0  0  0
    5.4376    2.2098   -4.3233 C   0  0  0  0  0  0  0  0  0  0  0  0
    4.9095    0.9228   -4.2315 C   0  0  0  0  0  0  0  0  0  0  0  0
    5.2847   -1.1699   -3.8794 H   0  0  0  0  0  0  0  0  0  0  0  0
    7.7088   -0.8180   -3.4588 H   0  0  0  0  0  0  0  0  0  0  0  0
    7.2218    3.3941   -4.1672 H   0  0  0  0  0  0  0  0  0  0  0  0
    4.7929    3.0422   -4.5832 H   0  0  0  0  0  0  0  0  0  0  0  0
    3.1723    0.6721   -4.5307 S   0  0  0  0  0  0  0  0  0  0  0  0
    2.6702    0.7865   -2.9371 O   0  0  0  0  0  0  0  0  0  0  0  0
    2.9384   -0.6963   -4.9882 O   0  0  0  0  0  0  0  0  0  0  0  0
    2.6249    1.8082   -5.2695 O   0  0  0  0  0  0  0  0  0  0  0  0
    9.1083    1.5213   -3.5108 C   0  0  0  0  0  0  0  0  0  0  0  0
    9.7178    0.8427   -4.1168 H   0  0  0  0  0  0  0  0  0  0  0  0
    9.4175    2.5454   -3.7356 H   0  0  0  0  0  0  0  0  0  0  0  0
    9.3518    1.3214   -2.4604 H   0  0  0  0  0  0  0  0  0  0  0  0
   -2.7404    0.2198   -1.8454 O   0  0  0  0  0  0  0  0  0  0  0  0
   -3.6110    1.3382   -1.7800 C   0  0  0  0  0  0  0  0  0  0  0  0
   -4.5982    0.9383   -1.5427 H   0  0  0  0  0  0  0  0  0  0  0  0
   -3.6585    1.8710   -2.7390 H   0  0  0  0  0  0  0  0  0  0  0  0
   -3.3091    2.0422   -0.9932 H   0  0  0  0  0  0  0  0  0  0  0  0
  1  6  1  0  0  0  0
  1  7  1  0  0  0  0
  2  1  2  0  0  0  0
  3  4  2  0  0  0  0
  3  2  1  0  0  0  0
  4  5  1  0  0  0  0
  5 10  1  0  0  0  0
  5  6  2  0  0  0  0
  6 31  1  0  0  0  0
  8  2  1  0  0  0  0
  9  4  1  0  0  0  0
 11 12  3  0  0  0  0
 13 19  1  0  0  0  0
 13 14  2  0  0  0  0
 14 20  1  0  0  0  0
 15 14  1  0  0  0  0
 15 27  1  0  0  0  0
 16 15  2  0  0  0  0
 17 18  2  0  0  0  0
 17 16  1  0  0  0  0
 18 13  1  0  0  0  0
 21 16  1  0  0  0  0
 22 17  1  0  0  0  0
 23 18  1  0  0  0  0
 23 24  1  0  0  0  0
 24  3  1  0  0  0  0
 25 23  2  0  0  0  0
 26 23  2  0  0  0  0
 27 30  1  0  0  0  0
 28 27  1  0  0  0  0
 29 27  1  0  0  0  0
 31 32  1  0  0  0  0
 32 33  1  0  0  0  0
 32 35  1  0  0  0  0
 34 32  1  0  0  0  0
M  END
