Coordinates from ORCA-job p-CH3O-Ph-N2-OTs-B3LYP-6-31G_dp-scan-d09-49-n400
 OpenBabel02051708043D

 35 34  0  0  0  0  0  0  0  0999 V2000
   -0.7483   -0.3836   -2.8233 C   0  0  0  0  0  0  0  0  0  0  0  0
    0.4282    0.3394   -2.6168 C   0  0  0  0  0  0  0  0  0  0  0  0
    0.3634    1.4148   -1.9653 C   0  0  0  0  0  0  0  0  0  0  0  0
   -0.6246    2.1470   -1.3709 C   0  0  0  0  0  0  0  0  0  0  0  0
   -1.8411    1.4493   -1.5567 C   0  0  0  0  0  0  0  0  0  0  0  0
   -1.9032    0.2212   -2.2619 C   0  0  0  0  0  0  0  0  0  0  0  0
   -0.8388   -1.3204   -3.3626 H   0  0  0  0  0  0  0  0  0  0  0  0
    2.3095    0.1763   -3.3558 H   0  0  0  0  0  0  0  0  0  0  0  0
   -0.5411    3.0848   -0.8380 H   0  0  0  0  0  0  0  0  0  0  0  0
   -2.7415    1.8826   -1.1371 H   0  0  0  0  0  0  0  0  0  0  0  0
    2.2998    3.5278    0.0895 N   0  0  0  0  0  0  0  0  0  0  0  0
    3.3782    3.4336    0.3117 N   0  0  0  0  0  0  0  0  0  0  0  0
    6.2821    1.2850   -2.8672 C   0  0  0  0  0  0  0  0  0  0  0  0
    7.6455    1.0240   -2.9734 C   0  0  0  0  0  0  0  0  0  0  0  0
    8.2477    0.8031   -4.2226 C   0  0  0  0  0  0  0  0  0  0  0  0
    7.4470    0.8615   -5.3717 C   0  0  0  0  0  0  0  0  0  0  0  0
    6.0802    1.1235   -5.2863 C   0  0  0  0  0  0  0  0  0  0  0  0
    5.5098    1.3268   -4.0302 C   0  0  0  0  0  0  0  0  0  0  0  0
    5.8195    1.4717   -1.9040 H   0  0  0  0  0  0  0  0  0  0  0  0
    8.2546    0.9964   -2.0733 H   0  0  0  0  0  0  0  0  0  0  0  0
    7.8997    0.7048   -6.3472 H   0  0  0  0  0  0  0  0  0  0  0  0
    5.4628    1.1835   -6.1761 H   0  0  0  0  0  0  0  0  0  0  0  0
    3.7645    1.6665   -3.9092 S   0  0  0  0  0  0  0  0  0  0  0  0
    3.4912    2.4021   -2.6693 O   0  0  0  0  0  0  0  0  0  0  0  0
    3.2300    0.1381   -3.7219 O   0  0  0  0  0  0  0  0  0  0  0  0
    3.2889    2.1946   -5.1865 O   0  0  0  0  0  0  0  0  0  0  0  0
    9.7235    0.4975   -4.3186 C   0  0  0  0  0  0  0  0  0  0  0  0
   10.3101    1.1501   -3.6645 H   0  0  0  0  0  0  0  0  0  0  0  0
    9.9298   -0.5359   -4.0133 H   0  0  0  0  0  0  0  0  0  0  0  0
   10.0924    0.6192   -5.3408 H   0  0  0  0  0  0  0  0  0  0  0  0
   -3.0600   -0.4735   -2.4612 O   0  0  0  0  0  0  0  0  0  0  0  0
   -4.2785    0.0633   -1.9688 C   0  0  0  0  0  0  0  0  0  0  0  0
   -5.0577   -0.6437   -2.2587 H   0  0  0  0  0  0  0  0  0  0  0  0
   -4.4976    1.0429   -2.4134 H   0  0  0  0  0  0  0  0  0  0  0  0
   -4.2657    0.1576   -0.8747 H   0  0  0  0  0  0  0  0  0  0  0  0
  1  2  2  0  0  0  0
  1  6  1  0  0  0  0
  2  3  1  0  0  0  0
  3  4  2  0  0  0  0
  4  9  1  0  0  0  0
  5  4  1  0  0  0  0
  5 10  1  0  0  0  0
  6  5  2  0  0  0  0
  7  1  1  0  0  0  0
 11 12  3  0  0  0  0
 13 19  1  0  0  0  0
 14 13  1  0  0  0  0
 14 20  1  0  0  0  0
 15 14  2  0  0  0  0
 16 17  2  0  0  0  0
 16 15  1  0  0  0  0
 17 18  1  0  0  0  0
 18 23  1  0  0  0  0
 18 13  2  0  0  0  0
 21 16  1  0  0  0  0
 22 17  1  0  0  0  0
 23 25  1  0  0  0  0
 23 24  2  0  0  0  0
 25  8  1  0  0  0  0
 26 23  2  0  0  0  0
 27 15  1  0  0  0  0
 27 29  1  0  0  0  0
 27 28  1  0  0  0  0
 30 27  1  0  0  0  0
 31  6  1  0  0  0  0
 31 32  1  0  0  0  0
 32 35  1  0  0  0  0
 33 32  1  0  0  0  0
 34 32  1  0  0  0  0
M  RAD  2   2   2   3   2
M  END
