Coordinates from ORCA-job p-CH3O-Ph-N2-OTs-B3LYP-6-31G_dp-scan-d09-49-n400
 OpenBabel02051708043D

 35 36  0  0  1  0  0  0  0  0999 V2000
    0.3234    0.3975   -3.2582 C   0  0  0  0  0  0  0  0  0  0  0  0
    0.8873    1.6454   -3.8234 C   0  0  1  0  0  0  0  0  0  0  0  0
    0.2461    2.9235   -3.2204 C   0  0  1  0  0  0  0  0  0  0  0  0
   -0.2459    2.7947   -1.8315 C   0  0  0  0  0  0  0  0  0  0  0  0
   -0.4688    1.5901   -1.2693 C   0  0  0  0  0  0  0  0  0  0  0  0
   -0.2530    0.3663   -2.0330 C   0  0  0  0  0  0  0  0  0  0  0  0
    0.4619   -0.5234   -3.8135 H   0  0  0  0  0  0  0  0  0  0  0  0
    0.8035    1.6859   -4.9128 H   0  0  0  0  0  0  0  0  0  0  0  0
   -0.4395    3.7211   -1.2980 H   0  0  0  0  0  0  0  0  0  0  0  0
   -0.8287    1.5378   -0.2492 H   0  0  0  0  0  0  0  0  0  0  0  0
    0.2020    3.7916   -3.7547 N   0  0  0  0  0  0  0  0  0  0  0  0
    0.1441    4.7832   -4.3647 N   0  0  0  0  0  0  0  0  0  0  0  0
    5.1740    0.3282   -4.8406 C   0  0  0  0  0  0  0  0  0  0  0  0
    6.3448   -0.3490   -4.5101 C   0  0  0  0  0  0  0  0  0  0  0  0
    7.2018    0.1290   -3.5068 C   0  0  0  0  0  0  0  0  0  0  0  0
    6.8620    1.3181   -2.8454 C   0  0  0  0  0  0  0  0  0  0  0  0
    5.6959    2.0121   -3.1623 C   0  0  0  0  0  0  0  0  0  0  0  0
    4.8590    1.5033   -4.1560 C   0  0  0  0  0  0  0  0  0  0  0  0
    4.5194   -0.0328   -5.6271 H   0  0  0  0  0  0  0  0  0  0  0  0
    6.6009   -1.2611   -5.0429 H   0  0  0  0  0  0  0  0  0  0  0  0
    7.5225    1.7099   -2.0759 H   0  0  0  0  0  0  0  0  0  0  0  0
    5.4415    2.9408   -2.6634 H   0  0  0  0  0  0  0  0  0  0  0  0
    3.3665    2.3828   -4.5735 S   0  0  0  0  0  0  0  0  0  0  0  0
    2.3467    1.6399   -3.5100 O   0  0  0  0  0  0  0  0  0  0  0  0
    2.9446    2.0294   -5.9324 O   0  0  0  0  0  0  0  0  0  0  0  0
    3.5073    3.7867   -4.1890 O   0  0  0  0  0  0  0  0  0  0  0  0
    8.4523   -0.6318   -3.1368 C   0  0  0  0  0  0  0  0  0  0  0  0
    8.2315   -1.4074   -2.3925 H   0  0  0  0  0  0  0  0  0  0  0  0
    8.8889   -1.1311   -4.0071 H   0  0  0  0  0  0  0  0  0  0  0  0
    9.2107    0.0285   -2.7061 H   0  0  0  0  0  0  0  0  0  0  0  0
   -0.6328   -0.8503   -1.5481 O   0  0  0  0  0  0  0  0  0  0  0  0
   -1.4634   -0.9219   -0.3955 C   0  0  0  0  0  0  0  0  0  0  0  0
   -1.7314   -1.9743   -0.2901 H   0  0  0  0  0  0  0  0  0  0  0  0
   -2.3792   -0.3295   -0.5115 H   0  0  0  0  0  0  0  0  0  0  0  0
   -0.9354   -0.6013    0.5116 H   0  0  0  0  0  0  0  0  0  0  0  0
  1  6  2  0  0  0  0
  2  8  1  6  0  0  0
  2 24  1  0  0  0  0
  2  1  1  0  0  0  0
  2  3  1  0  0  0  0
  3 11  1  1  0  0  0
  3  4  1  0  0  0  0
  4  9  1  0  0  0  0
  4  5  2  0  0  0  0
  5 10  1  0  0  0  0
  6 31  1  0  0  0  0
  6  5  1  0  0  0  0
  7  1  1  0  0  0  0
 12 11  1  0  0  0  0
 13 14  2  0  0  0  0
 13 18  1  0  0  0  0
 14 15  1  0  0  0  0
 15 27  1  0  0  0  0
 15 16  2  0  0  0  0
 16 21  1  0  0  0  0
 17 16  1  0  0  0  0
 17 22  1  0  0  0  0
 18 17  2  0  0  0  0
 19 13  1  0  0  0  0
 20 14  1  0  0  0  0
 23 26  2  0  0  0  0
 23 18  1  0  0  0  0
 23 24  1  0  0  0  0
 25 23  2  0  0  0  0
 27 30  1  0  0  0  0
 27 28  1  0  0  0  0
 29 27  1  0  0  0  0
 31 32  1  0  0  0  0
 32 33  1  0  0  0  0
 32 35  1  0  0  0  0
 34 32  1  0  0  0  0
M  RAD  3   3   2  11   2  12   3
M  END
