Coordinates from ORCA-job p-CH3O-Ph-N2-OTs-B3LYP-6-31G_dp-scan-d09-49-n400
 OpenBabel02051708043D

 35 34  0  0  0  0  0  0  0  0999 V2000
   -0.4365    0.1356   -2.8607 C   0  0  0  0  0  0  0  0  0  0  0  0
    0.5947    1.0865   -2.9044 C   0  0  0  0  0  0  0  0  0  0  0  0
    0.3242    2.1099   -2.0691 C   0  0  0  0  0  0  0  0  0  0  0  0
   -0.6808    2.4224   -1.2086 C   0  0  0  0  0  0  0  0  0  0  0  0
   -1.6812    1.4327   -1.1987 C   0  0  0  0  0  0  0  0  0  0  0  0
   -1.5570    0.2967   -2.0205 C   0  0  0  0  0  0  0  0  0  0  0  0
   -0.3708   -0.7489   -3.4863 H   0  0  0  0  0  0  0  0  0  0  0  0
    1.4888    0.9928   -3.5601 H   0  0  0  0  0  0  0  0  0  0  0  0
   -0.7292    3.3146   -0.5987 H   0  0  0  0  0  0  0  0  0  0  0  0
   -2.5361    1.5753   -0.5488 H   0  0  0  0  0  0  0  0  0  0  0  0
    1.7041    3.5753   -2.0777 N   0  0  0  0  0  0  0  0  0  0  0  0
    1.9773    4.6395   -1.9269 N   0  0  0  0  0  0  0  0  0  0  0  0
    5.6900    0.0605   -3.9715 C   0  0  0  0  0  0  0  0  0  0  0  0
    6.9970   -0.4199   -4.0272 C   0  0  0  0  0  0  0  0  0  0  0  0
    8.0842    0.4521   -4.1876 C   0  0  0  0  0  0  0  0  0  0  0  0
    7.8240    1.8246   -4.3033 C   0  0  0  0  0  0  0  0  0  0  0  0
    6.5209    2.3196   -4.2490 C   0  0  0  0  0  0  0  0  0  0  0  0
    5.4576    1.4328   -4.0797 C   0  0  0  0  0  0  0  0  0  0  0  0
    4.8503   -0.6184   -3.8678 H   0  0  0  0  0  0  0  0  0  0  0  0
    7.1775   -1.4902   -3.9516 H   0  0  0  0  0  0  0  0  0  0  0  0
    8.6523    2.5152   -4.4461 H   0  0  0  0  0  0  0  0  0  0  0  0
    6.3160    3.3795   -4.3577 H   0  0  0  0  0  0  0  0  0  0  0  0
    3.7817    2.0758   -3.9687 S   0  0  0  0  0  0  0  0  0  0  0  0
    3.4812    2.1209   -2.4858 O   0  0  0  0  0  0  0  0  0  0  0  0
    2.9137    1.0490   -4.6406 O   0  0  0  0  0  0  0  0  0  0  0  0
    3.7770    3.4099   -4.6012 O   0  0  0  0  0  0  0  0  0  0  0  0
    9.5005   -0.0738   -4.2168 C   0  0  0  0  0  0  0  0  0  0  0  0
    9.9251   -0.1255   -3.2058 H   0  0  0  0  0  0  0  0  0  0  0  0
    9.5446   -1.0830   -4.6384 H   0  0  0  0  0  0  0  0  0  0  0  0
   10.1554    0.5709   -4.8114 H   0  0  0  0  0  0  0  0  0  0  0  0
   -2.4679   -0.7023   -2.0762 O   0  0  0  0  0  0  0  0  0  0  0  0
   -3.6260   -0.6246   -1.2510 C   0  0  0  0  0  0  0  0  0  0  0  0
   -4.2009   -1.5273   -1.4606 H   0  0  0  0  0  0  0  0  0  0  0  0
   -4.2330    0.2566   -1.4948 H   0  0  0  0  0  0  0  0  0  0  0  0
   -3.3584   -0.6033   -0.1870 H   0  0  0  0  0  0  0  0  0  0  0  0
  1  6  1  0  0  0  0
  2  1  2  0  0  0  0
  2  3  1  0  0  0  0
  3  4  2  0  0  0  0
  4  5  1  0  0  0  0
  4  9  1  0  0  0  0
  5 10  1  0  0  0  0
  6  5  2  0  0  0  0
  7  1  1  0  0  0  0
  8  2  1  0  0  0  0
 11 12  3  0  0  0  0
 13 19  1  0  0  0  0
 14 13  1  0  0  0  0
 14 20  1  0  0  0  0
 15 14  2  0  0  0  0
 16 17  2  0  0  0  0
 16 15  1  0  0  0  0
 17 18  1  0  0  0  0
 18 13  2  0  0  0  0
 18 23  1  0  0  0  0
 21 16  1  0  0  0  0
 22 17  1  0  0  0  0
 23 24  1  0  0  0  0
 25 23  2  0  0  0  0
 26 23  2  0  0  0  0
 27 15  1  0  0  0  0
 27 28  1  0  0  0  0
 29 27  1  0  0  0  0
 30 27  1  0  0  0  0
 31  6  1  0  0  0  0
 31 32  1  0  0  0  0
 32 35  1  0  0  0  0
 33 32  1  0  0  0  0
 34 32  1  0  0  0  0
M  RAD  2   3   2  24   2
M  END
