Coordinates from ORCA-job p-CH3O-Ph-N2-OTs-B3LYP-6-31G_dp-scan-d09-49-n400
 OpenBabel02051708043D

 35 34  0  0  0  0  0  0  0  0999 V2000
   -0.3860    0.1814   -2.7189 C   0  0  0  0  0  0  0  0  0  0  0  0
    0.6212    0.9627   -2.1282 C   0  0  0  0  0  0  0  0  0  0  0  0
    0.2052    1.7841   -1.2515 C   0  0  0  0  0  0  0  0  0  0  0  0
   -0.9826    2.1591   -0.6987 C   0  0  0  0  0  0  0  0  0  0  0  0
   -2.0037    1.3809   -1.2852 C   0  0  0  0  0  0  0  0  0  0  0  0
   -1.7109    0.4119   -2.2750 C   0  0  0  0  0  0  0  0  0  0  0  0
   -0.2074   -0.5658   -3.4866 H   0  0  0  0  0  0  0  0  0  0  0  0
    2.3429    0.7373   -2.7427 H   0  0  0  0  0  0  0  0  0  0  0  0
   -1.1570    2.9124    0.0590 H   0  0  0  0  0  0  0  0  0  0  0  0
   -3.0230    1.5452   -0.9561 H   0  0  0  0  0  0  0  0  0  0  0  0
    1.7819    3.0629   -0.1630 N   0  0  0  0  0  0  0  0  0  0  0  0
    2.8543    3.1810    0.0797 N   0  0  0  0  0  0  0  0  0  0  0  0
    6.4684    1.6544   -2.9771 C   0  0  0  0  0  0  0  0  0  0  0  0
    7.7916    1.2609   -3.1662 C   0  0  0  0  0  0  0  0  0  0  0  0
    8.1989    0.6299   -4.3514 C   0  0  0  0  0  0  0  0  0  0  0  0
    7.2444    0.4113   -5.3558 C   0  0  0  0  0  0  0  0  0  0  0  0
    5.9168    0.7992   -5.1858 C   0  0  0  0  0  0  0  0  0  0  0  0
    5.5401    1.4135   -3.9908 C   0  0  0  0  0  0  0  0  0  0  0  0
    6.1559    2.1559   -2.0677 H   0  0  0  0  0  0  0  0  0  0  0  0
    8.5219    1.4532   -2.3841 H   0  0  0  0  0  0  0  0  0  0  0  0
    7.5465   -0.0624   -6.2864 H   0  0  0  0  0  0  0  0  0  0  0  0
    5.1817    0.6454   -5.9686 H   0  0  0  0  0  0  0  0  0  0  0  0
    3.8452    1.9239   -3.7660 S   0  0  0  0  0  0  0  0  0  0  0  0
    3.7905    2.9992   -2.7691 O   0  0  0  0  0  0  0  0  0  0  0  0
    3.2714    0.5640   -3.0943 O   0  0  0  0  0  0  0  0  0  0  0  0
    3.2265    2.1224   -5.0769 O   0  0  0  0  0  0  0  0  0  0  0  0
    9.6290    0.1804   -4.5344 C   0  0  0  0  0  0  0  0  0  0  0  0
   10.3243    0.8201   -3.9831 H   0  0  0  0  0  0  0  0  0  0  0  0
    9.7671   -0.8442   -4.1663 H   0  0  0  0  0  0  0  0  0  0  0  0
    9.9197    0.1884   -5.5892 H   0  0  0  0  0  0  0  0  0  0  0  0
   -2.6581   -0.3640   -2.8726 O   0  0  0  0  0  0  0  0  0  0  0  0
   -4.0187   -0.1902   -2.5073 C   0  0  0  0  0  0  0  0  0  0  0  0
   -4.5858   -0.9002   -3.1107 H   0  0  0  0  0  0  0  0  0  0  0  0
   -4.3685    0.8275   -2.7253 H   0  0  0  0  0  0  0  0  0  0  0  0
   -4.1833   -0.4098   -1.4440 H   0  0  0  0  0  0  0  0  0  0  0  0
  1  6  2  0  0  0  0
  1  2  1  0  0  0  0
  2  3  2  0  0  0  0
  3  4  1  0  0  0  0
  4  9  1  0  0  0  0
  5 10  1  0  0  0  0
  5  4  2  0  0  0  0
  6  5  1  0  0  0  0
  7  1  1  0  0  0  0
 11 12  3  0  0  0  0
 13 19  1  0  0  0  0
 14 13  1  0  0  0  0
 14 20  1  0  0  0  0
 15 14  2  0  0  0  0
 16 17  2  0  0  0  0
 16 15  1  0  0  0  0
 17 18  1  0  0  0  0
 18 23  1  0  0  0  0
 18 13  2  0  0  0  0
 21 16  1  0  0  0  0
 22 17  1  0  0  0  0
 23 25  1  0  0  0  0
 23 24  2  0  0  0  0
 25  8  1  0  0  0  0
 26 23  2  0  0  0  0
 27 15  1  0  0  0  0
 27 29  1  0  0  0  0
 27 28  1  0  0  0  0
 30 27  1  0  0  0  0
 31 32  1  0  0  0  0
 31  6  1  0  0  0  0
 32 35  1  0  0  0  0
 33 32  1  0  0  0  0
 34 32  1  0  0  0  0
M  RAD  2   2   2   3   2
M  END
