Coordinates from ORCA-job p-CH3O-Ph-N2-OTs-B3LYP-6-31G_dp-scan-d09-49-n400
 OpenBabel02051708043D

 35 34  0  0  0  0  0  0  0  0999 V2000
   -0.6291   -0.1749   -2.8010 C   0  0  0  0  0  0  0  0  0  0  0  0
    0.4537    0.5930   -2.3677 C   0  0  0  0  0  0  0  0  0  0  0  0
    0.2310    1.5672   -1.6022 C   0  0  0  0  0  0  0  0  0  0  0  0
   -0.8745    2.1390   -1.0387 C   0  0  0  0  0  0  0  0  0  0  0  0
   -2.0014    1.3916   -1.4526 C   0  0  0  0  0  0  0  0  0  0  0  0
   -1.8844    0.2680   -2.3084 C   0  0  0  0  0  0  0  0  0  0  0  0
   -0.5808   -1.0358   -3.4594 H   0  0  0  0  0  0  0  0  0  0  0  0
    2.3657    0.4334   -2.9362 H   0  0  0  0  0  0  0  0  0  0  0  0
   -0.9310    3.0030   -0.3892 H   0  0  0  0  0  0  0  0  0  0  0  0
   -2.9748    1.7028   -1.0916 H   0  0  0  0  0  0  0  0  0  0  0  0
    2.3647    3.5580    0.1156 N   0  0  0  0  0  0  0  0  0  0  0  0
    3.4115    3.6329    0.4617 N   0  0  0  0  0  0  0  0  0  0  0  0
    6.4375    1.4919   -2.8961 C   0  0  0  0  0  0  0  0  0  0  0  0
    7.7786    1.1659   -3.0832 C   0  0  0  0  0  0  0  0  0  0  0  0
    8.2497    0.7156   -4.3264 C   0  0  0  0  0  0  0  0  0  0  0  0
    7.3408    0.6095   -5.3891 C   0  0  0  0  0  0  0  0  0  0  0  0
    5.9950    0.9315   -5.2219 C   0  0  0  0  0  0  0  0  0  0  0  0
    5.5555    1.3648   -3.9709 C   0  0  0  0  0  0  0  0  0  0  0  0
    6.0760    1.8555   -1.9404 H   0  0  0  0  0  0  0  0  0  0  0  0
    8.4728    1.2687   -2.2530 H   0  0  0  0  0  0  0  0  0  0  0  0
    7.6928    0.2758   -6.3618 H   0  0  0  0  0  0  0  0  0  0  0  0
    5.2940    0.8640   -6.0469 H   0  0  0  0  0  0  0  0  0  0  0  0
    3.8382    1.7885   -3.7480 S   0  0  0  0  0  0  0  0  0  0  0  0
    3.7069    2.7369   -2.6385 O   0  0  0  0  0  0  0  0  0  0  0  0
    3.3018    0.3316   -3.2489 O   0  0  0  0  0  0  0  0  0  0  0  0
    3.2448    2.1033   -5.0470 O   0  0  0  0  0  0  0  0  0  0  0  0
    9.7005    0.3381   -4.5085 C   0  0  0  0  0  0  0  0  0  0  0  0
   10.3591    0.9808   -3.9170 H   0  0  0  0  0  0  0  0  0  0  0  0
    9.8787   -0.6952   -4.1851 H   0  0  0  0  0  0  0  0  0  0  0  0
   10.0045    0.4095   -5.5568 H   0  0  0  0  0  0  0  0  0  0  0  0
   -2.9501   -0.4723   -2.7273 O   0  0  0  0  0  0  0  0  0  0  0  0
   -4.2557   -0.0897   -2.3214 C   0  0  0  0  0  0  0  0  0  0  0  0
   -4.9365   -0.8059   -2.7838 H   0  0  0  0  0  0  0  0  0  0  0  0
   -4.5059    0.9213   -2.6683 H   0  0  0  0  0  0  0  0  0  0  0  0
   -4.3695   -0.1367   -1.2302 H   0  0  0  0  0  0  0  0  0  0  0  0
  1  2  2  0  0  0  0
  1  6  1  0  0  0  0
  2  3  1  0  0  0  0
  3  4  2  0  0  0  0
  4  9  1  0  0  0  0
  5 10  1  0  0  0  0
  5  4  1  0  0  0  0
  6  5  2  0  0  0  0
  7  1  1  0  0  0  0
 11 12  3  0  0  0  0
 13 19  1  0  0  0  0
 14 13  1  0  0  0  0
 14 20  1  0  0  0  0
 15 14  2  0  0  0  0
 16 17  2  0  0  0  0
 16 15  1  0  0  0  0
 17 18  1  0  0  0  0
 18 23  1  0  0  0  0
 18 13  2  0  0  0  0
 21 16  1  0  0  0  0
 22 17  1  0  0  0  0
 23 25  1  0  0  0  0
 23 24  2  0  0  0  0
 25  8  1  0  0  0  0
 26 23  2  0  0  0  0
 27 15  1  0  0  0  0
 27 29  1  0  0  0  0
 27 28  1  0  0  0  0
 30 27  1  0  0  0  0
 31 32  1  0  0  0  0
 31  6  1  0  0  0  0
 32 35  1  0  0  0  0
 33 32  1  0  0  0  0
 34 32  1  0  0  0  0
M  RAD  2   2   2   3   2
M  END
