Coordinates from ORCA-job p-CH3O-Ph-N2-OTs-B3LYP-6-31G_dp-scan-d09-49-n400
 OpenBabel02051708043D

 35 35  0  0  0  0  0  0  0  0999 V2000
   -0.6479   -0.7280   -2.1993 C   0  0  0  0  0  0  0  0  0  0  0  0
    0.7063   -0.5983   -2.4780 C   0  0  0  0  0  0  0  0  0  0  0  0
    1.2388    0.6723   -2.7093 C   0  0  0  0  0  0  0  0  0  0  0  0
    0.4321    1.8040   -2.6742 C   0  0  0  0  0  0  0  0  0  0  0  0
   -0.9311    1.6756   -2.3947 C   0  0  0  0  0  0  0  0  0  0  0  0
   -1.4748    0.4066   -2.1557 C   0  0  0  0  0  0  0  0  0  0  0  0
   -1.0925   -1.6999   -2.0123 H   0  0  0  0  0  0  0  0  0  0  0  0
    1.3546   -1.4665   -2.5200 H   0  0  0  0  0  0  0  0  0  0  0  0
    0.8695    2.7775   -2.8661 H   0  0  0  0  0  0  0  0  0  0  0  0
   -1.5504    2.5645   -2.3699 H   0  0  0  0  0  0  0  0  0  0  0  0
    4.3804    2.2804   -0.1175 N   0  0  0  0  0  0  0  0  0  0  0  0
    4.8869    1.3212   -0.3302 N   0  0  0  0  0  0  0  0  0  0  0  0
    5.6555   -0.1653   -3.9009 C   0  0  0  0  0  0  0  0  0  0  0  0
    7.0141    0.0132   -3.6606 C   0  0  0  0  0  0  0  0  0  0  0  0
    7.6012    1.2881   -3.7188 C   0  0  0  0  0  0  0  0  0  0  0  0
    6.7887    2.3867   -4.0297 C   0  0  0  0  0  0  0  0  0  0  0  0
    5.4241    2.2298   -4.2719 C   0  0  0  0  0  0  0  0  0  0  0  0
    4.8716    0.9520   -4.2003 C   0  0  0  0  0  0  0  0  0  0  0  0
    5.2048   -1.1515   -3.8691 H   0  0  0  0  0  0  0  0  0  0  0  0
    7.6316   -0.8502   -3.4266 H   0  0  0  0  0  0  0  0  0  0  0  0
    7.2291    3.3784   -4.0875 H   0  0  0  0  0  0  0  0  0  0  0  0
    4.7964    3.0776   -4.5236 H   0  0  0  0  0  0  0  0  0  0  0  0
    3.1321    0.7369   -4.5133 S   0  0  0  0  0  0  0  0  0  0  0  0
    2.6226    0.8143   -2.9199 O   0  0  0  0  0  0  0  0  0  0  0  0
    2.8786   -0.6141   -5.0101 O   0  0  0  0  0  0  0  0  0  0  0  0
    2.6070    1.9019   -5.2230 O   0  0  0  0  0  0  0  0  0  0  0  0
    9.0784    1.4594   -3.4572 C   0  0  0  0  0  0  0  0  0  0  0  0
    9.6759    0.8929   -4.1805 H   0  0  0  0  0  0  0  0  0  0  0  0
    9.3789    2.5083   -3.5215 H   0  0  0  0  0  0  0  0  0  0  0  0
    9.3477    1.0914   -2.4606 H   0  0  0  0  0  0  0  0  0  0  0  0
   -2.7875    0.1671   -1.8718 O   0  0  0  0  0  0  0  0  0  0  0  0
   -3.6786    1.2704   -1.8285 C   0  0  0  0  0  0  0  0  0  0  0  0
   -4.6606    0.8559   -1.5946 H   0  0  0  0  0  0  0  0  0  0  0  0
   -3.7271    1.7898   -2.7947 H   0  0  0  0  0  0  0  0  0  0  0  0
   -3.3961    1.9896   -1.0484 H   0  0  0  0  0  0  0  0  0  0  0  0
  1  6  1  0  0  0  0
  1  7  1  0  0  0  0
  2  1  2  0  0  0  0
  3  4  2  0  0  0  0
  3  2  1  0  0  0  0
  4  5  1  0  0  0  0
  5 10  1  0  0  0  0
  5  6  2  0  0  0  0
  6 31  1  0  0  0  0
  8  2  1  0  0  0  0
  9  4  1  0  0  0  0
 12 11  3  0  0  0  0
 13 19  1  0  0  0  0
 13 14  2  0  0  0  0
 14 20  1  0  0  0  0
 15 14  1  0  0  0  0
 15 27  1  0  0  0  0
 16 15  2  0  0  0  0
 17 18  2  0  0  0  0
 17 16  1  0  0  0  0
 18 13  1  0  0  0  0
 21 16  1  0  0  0  0
 22 17  1  0  0  0  0
 23 18  1  0  0  0  0
 23 24  1  0  0  0  0
 24  3  1  0  0  0  0
 25 23  2  0  0  0  0
 26 23  2  0  0  0  0
 27 30  1  0  0  0  0
 28 27  1  0  0  0  0
 29 27  1  0  0  0  0
 31 32  1  0  0  0  0
 32 33  1  0  0  0  0
 32 35  1  0  0  0  0
 34 32  1  0  0  0  0
M  END
