Coordinates from ORCA-job p-CH3O-Ph-N2-OTs-B3LYP-6-31G_dp-scan-d09-49-n400
 OpenBabel02051708043D

 35 35  0  0  0  0  0  0  0  0999 V2000
   -0.6514   -0.7293   -2.2051 C   0  0  0  0  0  0  0  0  0  0  0  0
    0.7033   -0.5969   -2.4798 C   0  0  0  0  0  0  0  0  0  0  0  0
    1.2345    0.6752   -2.7058 C   0  0  0  0  0  0  0  0  0  0  0  0
    0.4261    1.8057   -2.6693 C   0  0  0  0  0  0  0  0  0  0  0  0
   -0.9376    1.6745   -2.3937 C   0  0  0  0  0  0  0  0  0  0  0  0
   -1.4801    0.4039   -2.1601 C   0  0  0  0  0  0  0  0  0  0  0  0
   -1.0951   -1.7024   -2.0224 H   0  0  0  0  0  0  0  0  0  0  0  0
    1.3529   -1.4640   -2.5228 H   0  0  0  0  0  0  0  0  0  0  0  0
    0.8626    2.7804   -2.8570 H   0  0  0  0  0  0  0  0  0  0  0  0
   -1.5582    2.5624   -2.3676 H   0  0  0  0  0  0  0  0  0  0  0  0
    4.4196    2.2987   -0.1086 N   0  0  0  0  0  0  0  0  0  0  0  0
    4.9173    1.3357   -0.3246 N   0  0  0  0  0  0  0  0  0  0  0  0
    5.6530   -0.1635   -3.8925 C   0  0  0  0  0  0  0  0  0  0  0  0
    7.0129    0.0121   -3.6572 C   0  0  0  0  0  0  0  0  0  0  0  0
    7.6031    1.2854   -3.7206 C   0  0  0  0  0  0  0  0  0  0  0  0
    6.7921    2.3853   -4.0306 C   0  0  0  0  0  0  0  0  0  0  0  0
    5.4263    2.2313   -4.2676 C   0  0  0  0  0  0  0  0  0  0  0  0
    4.8708    0.9550   -4.1916 C   0  0  0  0  0  0  0  0  0  0  0  0
    5.2002   -1.1486   -3.8573 H   0  0  0  0  0  0  0  0  0  0  0  0
    7.6291   -0.8524   -3.4238 H   0  0  0  0  0  0  0  0  0  0  0  0
    7.2347    3.3758   -4.0922 H   0  0  0  0  0  0  0  0  0  0  0  0
    4.7998    3.0801   -4.5191 H   0  0  0  0  0  0  0  0  0  0  0  0
    3.1310    0.7425   -4.5052 S   0  0  0  0  0  0  0  0  0  0  0  0
    2.6186    0.8204   -2.9128 O   0  0  0  0  0  0  0  0  0  0  0  0
    2.8765   -0.6082   -5.0025 O   0  0  0  0  0  0  0  0  0  0  0  0
    2.6084    1.9081   -5.2157 O   0  0  0  0  0  0  0  0  0  0  0  0
    9.0818    1.4534   -3.4660 C   0  0  0  0  0  0  0  0  0  0  0  0
    9.6746    0.8861   -4.1925 H   0  0  0  0  0  0  0  0  0  0  0  0
    9.3843    2.5017   -3.5312 H   0  0  0  0  0  0  0  0  0  0  0  0
    9.3552    1.0842   -2.4709 H   0  0  0  0  0  0  0  0  0  0  0  0
   -2.7932    0.1617   -1.8803 O   0  0  0  0  0  0  0  0  0  0  0  0
   -3.6859    1.2636   -1.8356 C   0  0  0  0  0  0  0  0  0  0  0  0
   -4.6678    0.8469   -1.6052 H   0  0  0  0  0  0  0  0  0  0  0  0
   -3.7330    1.7859   -2.8003 H   0  0  0  0  0  0  0  0  0  0  0  0
   -3.4062    1.9808   -1.0527 H   0  0  0  0  0  0  0  0  0  0  0  0
  1  6  1  0  0  0  0
  1  7  1  0  0  0  0
  2  1  2  0  0  0  0
  3  4  2  0  0  0  0
  3  2  1  0  0  0  0
  4  5  1  0  0  0  0
  5 10  1  0  0  0  0
  5  6  2  0  0  0  0
  6 31  1  0  0  0  0
  8  2  1  0  0  0  0
  9  4  1  0  0  0  0
 12 11  3  0  0  0  0
 13 19  1  0  0  0  0
 13 14  2  0  0  0  0
 14 20  1  0  0  0  0
 15 14  1  0  0  0  0
 15 27  1  0  0  0  0
 16 15  2  0  0  0  0
 17 18  2  0  0  0  0
 17 16  1  0  0  0  0
 18 13  1  0  0  0  0
 21 16  1  0  0  0  0
 22 17  1  0  0  0  0
 23 18  1  0  0  0  0
 23 24  1  0  0  0  0
 24  3  1  0  0  0  0
 25 23  2  0  0  0  0
 26 23  2  0  0  0  0
 27 30  1  0  0  0  0
 28 27  1  0  0  0  0
 29 27  1  0  0  0  0
 31 32  1  0  0  0  0
 32 33  1  0  0  0  0
 32 35  1  0  0  0  0
 34 32  1  0  0  0  0
M  END
