Coordinates from ORCA-job p-CH3O-Ph-N2-OTs-B3LYP-6-31G_dp-scan-d09-49-n400
 OpenBabel02051708043D

 35 34  0  0  0  0  0  0  0  0999 V2000
   -0.4553    0.1097   -2.7629 C   0  0  0  0  0  0  0  0  0  0  0  0
    0.5518    0.8965   -2.1891 C   0  0  0  0  0  0  0  0  0  0  0  0
    0.1824    1.7412   -1.3253 C   0  0  0  0  0  0  0  0  0  0  0  0
   -0.9896    2.1457   -0.7579 C   0  0  0  0  0  0  0  0  0  0  0  0
   -2.0275    1.3673   -1.3195 C   0  0  0  0  0  0  0  0  0  0  0  0
   -1.7680    0.3749   -2.2966 C   0  0  0  0  0  0  0  0  0  0  0  0
   -0.2991   -0.6540   -3.5183 H   0  0  0  0  0  0  0  0  0  0  0  0
    2.3666    0.7095   -2.7705 H   0  0  0  0  0  0  0  0  0  0  0  0
   -1.1468    2.9143   -0.0121 H   0  0  0  0  0  0  0  0  0  0  0  0
   -3.0400    1.5509   -0.9791 H   0  0  0  0  0  0  0  0  0  0  0  0
    1.9454    3.2278   -0.0519 N   0  0  0  0  0  0  0  0  0  0  0  0
    3.0085    3.3152    0.2376 N   0  0  0  0  0  0  0  0  0  0  0  0
    6.4887    1.6460   -2.9682 C   0  0  0  0  0  0  0  0  0  0  0  0
    7.8118    1.2546   -3.1617 C   0  0  0  0  0  0  0  0  0  0  0  0
    8.2192    0.6373   -4.3541 C   0  0  0  0  0  0  0  0  0  0  0  0
    7.2648    0.4298   -5.3611 C   0  0  0  0  0  0  0  0  0  0  0  0
    5.9372    0.8154   -5.1869 C   0  0  0  0  0  0  0  0  0  0  0  0
    5.5609    1.4161   -3.9849 C   0  0  0  0  0  0  0  0  0  0  0  0
    6.1761    2.1368   -2.0530 H   0  0  0  0  0  0  0  0  0  0  0  0
    8.5420    1.4379   -2.3775 H   0  0  0  0  0  0  0  0  0  0  0  0
    7.5672   -0.0334   -6.2968 H   0  0  0  0  0  0  0  0  0  0  0  0
    5.2021    0.6699   -5.9713 H   0  0  0  0  0  0  0  0  0  0  0  0
    3.8668    1.9242   -3.7546 S   0  0  0  0  0  0  0  0  0  0  0  0
    3.8092    2.9865   -2.7460 O   0  0  0  0  0  0  0  0  0  0  0  0
    3.2974    0.5497   -3.0955 O   0  0  0  0  0  0  0  0  0  0  0  0
    3.2426    2.1301   -5.0613 O   0  0  0  0  0  0  0  0  0  0  0  0
    9.6493    0.1900   -4.5420 C   0  0  0  0  0  0  0  0  0  0  0  0
   10.3448    0.8265   -3.9873 H   0  0  0  0  0  0  0  0  0  0  0  0
    9.7883   -0.8369   -4.1806 H   0  0  0  0  0  0  0  0  0  0  0  0
    9.9385    0.2051   -5.5970 H   0  0  0  0  0  0  0  0  0  0  0  0
   -2.7393   -0.3954   -2.8631 O   0  0  0  0  0  0  0  0  0  0  0  0
   -4.0901   -0.1920   -2.4776 C   0  0  0  0  0  0  0  0  0  0  0  0
   -4.6795   -0.9030   -3.0581 H   0  0  0  0  0  0  0  0  0  0  0  0
   -4.4265    0.8274   -2.7082 H   0  0  0  0  0  0  0  0  0  0  0  0
   -4.2395   -0.3896   -1.4077 H   0  0  0  0  0  0  0  0  0  0  0  0
  1  6  2  0  0  0  0
  1  2  1  0  0  0  0
  2  3  2  0  0  0  0
  3  4  1  0  0  0  0
  4  9  1  0  0  0  0
  5 10  1  0  0  0  0
  5  4  2  0  0  0  0
  6  5  1  0  0  0  0
  7  1  1  0  0  0  0
 11 12  3  0  0  0  0
 13 19  1  0  0  0  0
 14 13  1  0  0  0  0
 14 20  1  0  0  0  0
 15 14  2  0  0  0  0
 16 17  2  0  0  0  0
 16 15  1  0  0  0  0
 17 18  1  0  0  0  0
 18 23  1  0  0  0  0
 18 13  2  0  0  0  0
 21 16  1  0  0  0  0
 22 17  1  0  0  0  0
 23 25  1  0  0  0  0
 23 24  2  0  0  0  0
 25  8  1  0  0  0  0
 26 23  2  0  0  0  0
 27 15  1  0  0  0  0
 27 29  1  0  0  0  0
 27 28  1  0  0  0  0
 30 27  1  0  0  0  0
 31 32  1  0  0  0  0
 31  6  1  0  0  0  0
 32 35  1  0  0  0  0
 33 32  1  0  0  0  0
 34 32  1  0  0  0  0
M  RAD  2   2   2   3   2
M  END
