Coordinates from ORCA-job p-CH3O-Ph-N2-OTs-B3LYP-6-31G_dp-scan-d09-49-n400
 OpenBabel02051708043D

 35 34  0  0  0  0  0  0  0  0999 V2000
   -0.3735    0.1934   -2.7115 C   0  0  0  0  0  0  0  0  0  0  0  0
    0.6323    0.9752   -2.1183 C   0  0  0  0  0  0  0  0  0  0  0  0
    0.2090    1.7945   -1.2401 C   0  0  0  0  0  0  0  0  0  0  0  0
   -0.9840    2.1627   -0.6929 C   0  0  0  0  0  0  0  0  0  0  0  0
   -2.0008    1.3832   -1.2828 C   0  0  0  0  0  0  0  0  0  0  0  0
   -1.7007    0.4171   -2.2730 C   0  0  0  0  0  0  0  0  0  0  0  0
   -0.1897   -0.5518   -3.4800 H   0  0  0  0  0  0  0  0  0  0  0  0
    2.3393    0.7487   -2.7296 H   0  0  0  0  0  0  0  0  0  0  0  0
   -1.1623    2.9145    0.0656 H   0  0  0  0  0  0  0  0  0  0  0  0
   -3.0217    1.5438   -0.9567 H   0  0  0  0  0  0  0  0  0  0  0  0
    1.7529    3.0336   -0.1848 N   0  0  0  0  0  0  0  0  0  0  0  0
    2.8269    3.1503    0.0525 N   0  0  0  0  0  0  0  0  0  0  0  0
    6.4692    1.6591   -2.9773 C   0  0  0  0  0  0  0  0  0  0  0  0
    7.7913    1.2630   -3.1686 C   0  0  0  0  0  0  0  0  0  0  0  0
    8.1945    0.6272   -4.3527 C   0  0  0  0  0  0  0  0  0  0  0  0
    7.2368    0.4064   -5.3536 C   0  0  0  0  0  0  0  0  0  0  0  0
    5.9102    0.7969   -5.1813 C   0  0  0  0  0  0  0  0  0  0  0  0
    5.5377    1.4159   -3.9875 C   0  0  0  0  0  0  0  0  0  0  0  0
    6.1599    2.1642   -2.0688 H   0  0  0  0  0  0  0  0  0  0  0  0
    8.5241    1.4570   -2.3893 H   0  0  0  0  0  0  0  0  0  0  0  0
    7.5357   -0.0710   -6.2834 H   0  0  0  0  0  0  0  0  0  0  0  0
    5.1728    0.6413   -5.9615 H   0  0  0  0  0  0  0  0  0  0  0  0
    3.8438    1.9291   -3.7597 S   0  0  0  0  0  0  0  0  0  0  0  0
    3.7940    3.0083   -2.7663 O   0  0  0  0  0  0  0  0  0  0  0  0
    3.2695    0.5736   -3.0825 O   0  0  0  0  0  0  0  0  0  0  0  0
    3.2227    2.1256   -5.0699 O   0  0  0  0  0  0  0  0  0  0  0  0
    9.6234    0.1750   -4.5381 C   0  0  0  0  0  0  0  0  0  0  0  0
   10.3212    0.8164   -3.9918 H   0  0  0  0  0  0  0  0  0  0  0  0
    9.7614   -0.8480   -4.1656 H   0  0  0  0  0  0  0  0  0  0  0  0
    9.9109    0.1778   -5.5937 H   0  0  0  0  0  0  0  0  0  0  0  0
   -2.6427   -0.3613   -2.8754 O   0  0  0  0  0  0  0  0  0  0  0  0
   -4.0052   -0.1933   -2.5148 C   0  0  0  0  0  0  0  0  0  0  0  0
   -4.5674   -0.9046   -3.1215 H   0  0  0  0  0  0  0  0  0  0  0  0
   -4.3582    0.8233   -2.7326 H   0  0  0  0  0  0  0  0  0  0  0  0
   -4.1730   -0.4152   -1.4525 H   0  0  0  0  0  0  0  0  0  0  0  0
  1  6  2  0  0  0  0
  1  2  1  0  0  0  0
  2  3  2  0  0  0  0
  3  4  1  0  0  0  0
  4  9  1  0  0  0  0
  5 10  1  0  0  0  0
  5  4  2  0  0  0  0
  6  5  1  0  0  0  0
  7  1  1  0  0  0  0
 11 12  3  0  0  0  0
 13 19  1  0  0  0  0
 14 13  1  0  0  0  0
 14 20  1  0  0  0  0
 15 14  2  0  0  0  0
 16 17  2  0  0  0  0
 16 15  1  0  0  0  0
 17 18  1  0  0  0  0
 18 23  1  0  0  0  0
 18 13  2  0  0  0  0
 21 16  1  0  0  0  0
 22 17  1  0  0  0  0
 23 25  1  0  0  0  0
 23 24  2  0  0  0  0
 25  8  1  0  0  0  0
 26 23  2  0  0  0  0
 27 15  1  0  0  0  0
 27 29  1  0  0  0  0
 27 28  1  0  0  0  0
 30 27  1  0  0  0  0
 31 32  1  0  0  0  0
 31  6  1  0  0  0  0
 32 35  1  0  0  0  0
 33 32  1  0  0  0  0
 34 32  1  0  0  0  0
M  RAD  2   2   2   3   2
M  END
