Coordinates from ORCA-job p-CH3O-Ph-N2-OTs-B3LYP-6-31G_dp-scan-d09-49-n400
 OpenBabel02051708043D

 35 34  0  0  0  0  0  0  0  0999 V2000
   -0.4162    0.1505   -2.7372 C   0  0  0  0  0  0  0  0  0  0  0  0
    0.5896    0.9343   -2.1517 C   0  0  0  0  0  0  0  0  0  0  0  0
    0.1938    1.7653   -1.2810 C   0  0  0  0  0  0  0  0  0  0  0  0
   -0.9866    2.1539   -0.7216 C   0  0  0  0  0  0  0  0  0  0  0  0
   -2.0146    1.3756   -1.2989 C   0  0  0  0  0  0  0  0  0  0  0  0
   -1.7360    0.3967   -2.2837 C   0  0  0  0  0  0  0  0  0  0  0  0
   -0.2469   -0.6036   -3.4998 H   0  0  0  0  0  0  0  0  0  0  0  0
    2.3556    0.7225   -2.7539 H   0  0  0  0  0  0  0  0  0  0  0  0
   -1.1537    2.9135    0.0313 H   0  0  0  0  0  0  0  0  0  0  0  0
   -3.0312    1.5483   -0.9656 H   0  0  0  0  0  0  0  0  0  0  0  0
    1.8505    3.1318   -0.1146 N   0  0  0  0  0  0  0  0  0  0  0  0
    2.9190    3.2378    0.1486 N   0  0  0  0  0  0  0  0  0  0  0  0
    6.4773    1.6506   -2.9742 C   0  0  0  0  0  0  0  0  0  0  0  0
    7.8008    1.2592   -3.1650 C   0  0  0  0  0  0  0  0  0  0  0  0
    8.2088    0.6339   -4.3530 C   0  0  0  0  0  0  0  0  0  0  0  0
    7.2546    0.4188   -5.3586 C   0  0  0  0  0  0  0  0  0  0  0  0
    5.9266    0.8045   -5.1870 C   0  0  0  0  0  0  0  0  0  0  0  0
    5.5495    1.4131   -3.9892 C   0  0  0  0  0  0  0  0  0  0  0  0
    6.1641    2.1476   -2.0625 H   0  0  0  0  0  0  0  0  0  0  0  0
    8.5308    1.4486   -2.3820 H   0  0  0  0  0  0  0  0  0  0  0  0
    7.5574   -0.0505   -6.2911 H   0  0  0  0  0  0  0  0  0  0  0  0
    5.1917    0.6532   -5.9705 H   0  0  0  0  0  0  0  0  0  0  0  0
    3.8546    1.9214   -3.7624 S   0  0  0  0  0  0  0  0  0  0  0  0
    3.7975    2.9921   -2.7619 O   0  0  0  0  0  0  0  0  0  0  0  0
    3.2842    0.5551   -3.0937 O   0  0  0  0  0  0  0  0  0  0  0  0
    3.2326    2.1200   -5.0715 O   0  0  0  0  0  0  0  0  0  0  0  0
    9.6393    0.1867   -4.5379 C   0  0  0  0  0  0  0  0  0  0  0  0
   10.3338    0.8242   -3.9832 H   0  0  0  0  0  0  0  0  0  0  0  0
    9.7780   -0.8396   -4.1747 H   0  0  0  0  0  0  0  0  0  0  0  0
    9.9302    0.2001   -5.5925 H   0  0  0  0  0  0  0  0  0  0  0  0
   -2.6939   -0.3762   -2.8687 O   0  0  0  0  0  0  0  0  0  0  0  0
   -4.0504   -0.1890   -2.4953 C   0  0  0  0  0  0  0  0  0  0  0  0
   -4.6273   -0.8989   -3.0896 H   0  0  0  0  0  0  0  0  0  0  0  0
   -4.3937    0.8298   -2.7184 H   0  0  0  0  0  0  0  0  0  0  0  0
   -4.2093   -0.3996   -1.4293 H   0  0  0  0  0  0  0  0  0  0  0  0
  1  6  2  0  0  0  0
  1  2  1  0  0  0  0
  2  3  2  0  0  0  0
  3  4  1  0  0  0  0
  4  9  1  0  0  0  0
  5 10  1  0  0  0  0
  5  4  2  0  0  0  0
  6  5  1  0  0  0  0
  7  1  1  0  0  0  0
 11 12  3  0  0  0  0
 13 19  1  0  0  0  0
 14 13  1  0  0  0  0
 14 20  1  0  0  0  0
 15 14  2  0  0  0  0
 16 17  2  0  0  0  0
 16 15  1  0  0  0  0
 17 18  1  0  0  0  0
 18 23  1  0  0  0  0
 18 13  2  0  0  0  0
 21 16  1  0  0  0  0
 22 17  1  0  0  0  0
 23 25  1  0  0  0  0
 23 24  2  0  0  0  0
 25  8  1  0  0  0  0
 26 23  2  0  0  0  0
 27 15  1  0  0  0  0
 27 29  1  0  0  0  0
 27 28  1  0  0  0  0
 30 27  1  0  0  0  0
 31 32  1  0  0  0  0
 31  6  1  0  0  0  0
 32 35  1  0  0  0  0
 33 32  1  0  0  0  0
 34 32  1  0  0  0  0
M  RAD  2   2   2   3   2
M  END
