Coordinates from ORCA-job p-CH3O-Ph-N2-OTs-B3LYP-6-31G_dp-scan-d09-49-n400
 OpenBabel02051708043D

 35 34  0  0  0  0  0  0  0  0999 V2000
   -0.4899    0.0656   -2.7805 C   0  0  0  0  0  0  0  0  0  0  0  0
    0.5214    0.8551   -2.2235 C   0  0  0  0  0  0  0  0  0  0  0  0
    0.1812    1.7198   -1.3711 C   0  0  0  0  0  0  0  0  0  0  0  0
   -0.9846    2.1431   -0.8018 C   0  0  0  0  0  0  0  0  0  0  0  0
   -2.0340    1.3652   -1.3418 C   0  0  0  0  0  0  0  0  0  0  0  0
   -1.7948    0.3538   -2.3050 C   0  0  0  0  0  0  0  0  0  0  0  0
   -0.3472   -0.7115   -3.5245 H   0  0  0  0  0  0  0  0  0  0  0  0
    2.3710    0.6805   -2.7913 H   0  0  0  0  0  0  0  0  0  0  0  0
   -1.1306    2.9252   -0.0677 H   0  0  0  0  0  0  0  0  0  0  0  0
   -3.0416    1.5645   -0.9955 H   0  0  0  0  0  0  0  0  0  0  0  0
    2.0405    3.3179   -0.0089 N   0  0  0  0  0  0  0  0  0  0  0  0
    3.0979    3.3975    0.3023 N   0  0  0  0  0  0  0  0  0  0  0  0
    6.4893    1.6258   -2.9561 C   0  0  0  0  0  0  0  0  0  0  0  0
    7.8137    1.2400   -3.1511 C   0  0  0  0  0  0  0  0  0  0  0  0
    8.2270    0.6444   -4.3526 C   0  0  0  0  0  0  0  0  0  0  0  0
    7.2771    0.4533   -5.3670 C   0  0  0  0  0  0  0  0  0  0  0  0
    5.9481    0.8335   -5.1915 C   0  0  0  0  0  0  0  0  0  0  0  0
    5.5660    1.4123   -3.9806 C   0  0  0  0  0  0  0  0  0  0  0  0
    6.1723    2.0999   -2.0336 H   0  0  0  0  0  0  0  0  0  0  0  0
    8.5404    1.4105   -2.3606 H   0  0  0  0  0  0  0  0  0  0  0  0
    7.5840    0.0071   -6.3094 H   0  0  0  0  0  0  0  0  0  0  0  0
    5.2164    0.7006   -5.9813 H   0  0  0  0  0  0  0  0  0  0  0  0
    3.8705    1.9135   -3.7482 S   0  0  0  0  0  0  0  0  0  0  0  0
    3.8064    2.9603   -2.7243 O   0  0  0  0  0  0  0  0  0  0  0  0
    3.3026    0.5269   -3.1094 O   0  0  0  0  0  0  0  0  0  0  0  0
    3.2484    2.1350   -5.0533 O   0  0  0  0  0  0  0  0  0  0  0  0
    9.6586    0.2029   -4.5422 C   0  0  0  0  0  0  0  0  0  0  0  0
   10.3513    0.8360   -3.9804 H   0  0  0  0  0  0  0  0  0  0  0  0
    9.7997   -0.8269   -4.1902 H   0  0  0  0  0  0  0  0  0  0  0  0
    9.9496    0.2288   -5.5966 H   0  0  0  0  0  0  0  0  0  0  0  0
   -2.7799   -0.4150   -2.8496 O   0  0  0  0  0  0  0  0  0  0  0  0
   -4.1248   -0.1901   -2.4549 C   0  0  0  0  0  0  0  0  0  0  0  0
   -4.7273   -0.9042   -3.0179 H   0  0  0  0  0  0  0  0  0  0  0  0
   -4.4521    0.8289   -2.6993 H   0  0  0  0  0  0  0  0  0  0  0  0
   -4.2660   -0.3683   -1.3805 H   0  0  0  0  0  0  0  0  0  0  0  0
  1  6  2  0  0  0  0
  1  2  1  0  0  0  0
  2  3  2  0  0  0  0
  3  4  1  0  0  0  0
  4  9  1  0  0  0  0
  5 10  1  0  0  0  0
  5  4  2  0  0  0  0
  6  5  1  0  0  0  0
  7  1  1  0  0  0  0
 11 12  3  0  0  0  0
 13 19  1  0  0  0  0
 14 13  1  0  0  0  0
 14 20  1  0  0  0  0
 15 14  2  0  0  0  0
 16 17  2  0  0  0  0
 16 15  1  0  0  0  0
 17 18  1  0  0  0  0
 18 23  1  0  0  0  0
 18 13  2  0  0  0  0
 21 16  1  0  0  0  0
 22 17  1  0  0  0  0
 23 25  1  0  0  0  0
 23 24  2  0  0  0  0
 25  8  1  0  0  0  0
 26 23  2  0  0  0  0
 27 15  1  0  0  0  0
 27 29  1  0  0  0  0
 27 28  1  0  0  0  0
 30 27  1  0  0  0  0
 31 32  1  0  0  0  0
 31  6  1  0  0  0  0
 32 35  1  0  0  0  0
 33 32  1  0  0  0  0
 34 32  1  0  0  0  0
M  RAD  2   2   2   3   2
M  END
