Coordinates from ORCA-job p-CH3O-Ph-N2-OTs-B3LYP-6-31G_dp-scan-d09-49-n400
 OpenBabel02051708043D

 35 36  0  0  1  0  0  0  0  0999 V2000
    0.0590    0.6081   -3.3644 C   0  0  0  0  0  0  0  0  0  0  0  0
    0.8389    1.8217   -3.6862 C   0  0  1  0  0  0  0  0  0  0  0  0
    0.5859    2.9347   -2.7026 C   0  0  0  0  0  0  0  0  0  0  0  0
    0.0475    2.6513   -1.3917 C   0  0  0  0  0  0  0  0  0  0  0  0
   -0.4554    1.4257   -1.1072 C   0  0  0  0  0  0  0  0  0  0  0  0
   -0.4894    0.4021   -2.1392 C   0  0  0  0  0  0  0  0  0  0  0  0
   -0.0035   -0.1670   -4.1196 H   0  0  0  0  0  0  0  0  0  0  0  0
    0.6791    2.1515   -4.7154 H   0  0  0  0  0  0  0  0  0  0  0  0
    0.0507    3.4458   -0.6512 H   0  0  0  0  0  0  0  0  0  0  0  0
   -0.8482    1.2242   -0.1189 H   0  0  0  0  0  0  0  0  0  0  0  0
    0.9116    4.0927   -3.0070 N   0  0  0  0  0  0  0  0  0  0  0  0
    1.2126    5.1580   -3.2922 N   0  0  0  0  0  0  0  0  0  0  0  0
    5.1498   -0.0694   -4.6066 C   0  0  0  0  0  0  0  0  0  0  0  0
    6.3902   -0.5350   -4.1757 C   0  0  0  0  0  0  0  0  0  0  0  0
    7.2861    0.3056   -3.4979 C   0  0  0  0  0  0  0  0  0  0  0  0
    6.9118    1.6382   -3.2673 C   0  0  0  0  0  0  0  0  0  0  0  0
    5.6751    2.1227   -3.6884 C   0  0  0  0  0  0  0  0  0  0  0  0
    4.8026    1.2583   -4.3515 C   0  0  0  0  0  0  0  0  0  0  0  0
    4.4639   -0.7146   -5.1448 H   0  0  0  0  0  0  0  0  0  0  0  0
    6.6715   -1.5655   -4.3759 H   0  0  0  0  0  0  0  0  0  0  0  0
    7.6011    2.3074   -2.7585 H   0  0  0  0  0  0  0  0  0  0  0  0
    5.3901    3.1562   -3.5246 H   0  0  0  0  0  0  0  0  0  0  0  0
    3.2234    1.8694   -4.9065 S   0  0  0  0  0  0  0  0  0  0  0  0
    2.3273    1.4455   -3.6089 O   0  0  0  0  0  0  0  0  0  0  0  0
    2.7736    1.0958   -6.0672 O   0  0  0  0  0  0  0  0  0  0  0  0
    3.2627    3.3341   -4.9919 O   0  0  0  0  0  0  0  0  0  0  0  0
    8.6174   -0.2167   -3.0124 C   0  0  0  0  0  0  0  0  0  0  0  0
    8.5457   -0.5648   -1.9743 H   0  0  0  0  0  0  0  0  0  0  0  0
    8.9608   -1.0613   -3.6168 H   0  0  0  0  0  0  0  0  0  0  0  0
    9.3873    0.5607   -3.0417 H   0  0  0  0  0  0  0  0  0  0  0  0
   -1.0962   -0.8027   -1.9297 O   0  0  0  0  0  0  0  0  0  0  0  0
   -1.8623   -1.0102   -0.7511 C   0  0  0  0  0  0  0  0  0  0  0  0
   -2.3137   -1.9975   -0.8633 H   0  0  0  0  0  0  0  0  0  0  0  0
   -2.6587   -0.2636   -0.6409 H   0  0  0  0  0  0  0  0  0  0  0  0
   -1.2379   -1.0095    0.1513 H   0  0  0  0  0  0  0  0  0  0  0  0
  1  6  1  0  0  0  0
  2  8  1  6  0  0  0
  2 24  1  0  0  0  0
  2  1  1  0  0  0  0
  2  3  1  0  0  0  0
  3  4  2  0  0  0  0
  4  5  1  0  0  0  0
  4  9  1  0  0  0  0
  5 10  1  0  0  0  0
  6 31  1  0  0  0  0
  6  5  2  0  0  0  0
  7  1  1  0  0  0  0
 11  3  1  0  0  0  0
 12 11  1  0  0  0  0
 13 18  2  0  0  0  0
 13 14  1  0  0  0  0
 14 15  2  0  0  0  0
 15 16  1  0  0  0  0
 15 27  1  0  0  0  0
 16 21  1  0  0  0  0
 17 22  1  0  0  0  0
 17 16  2  0  0  0  0
 18 17  1  0  0  0  0
 19 13  1  0  0  0  0
 20 14  1  0  0  0  0
 23 18  1  0  0  0  0
 23 24  1  0  0  0  0
 25 23  2  0  0  0  0
 26 23  2  0  0  0  0
 27 28  1  0  0  0  0
 29 27  1  0  0  0  0
 30 27  1  0  0  0  0
 31 32  1  0  0  0  0
 32 34  1  0  0  0  0
 32 35  1  0  0  0  0
 33 32  1  0  0  0  0
M  RAD  3   1   2  11   2  12   3
M  END
