Coordinates from ORCA-job p-CH3O-Ph-N2-OTs-B3LYP-6-31G_dp-scan-d09-49-n400
 OpenBabel02051708043D

 35 34  0  0  0  0  0  0  0  0999 V2000
   -0.4411    0.1242   -2.7525 C   0  0  0  0  0  0  0  0  0  0  0  0
    0.5650    0.9103   -2.1745 C   0  0  0  0  0  0  0  0  0  0  0  0
    0.1874    1.7507   -1.3085 C   0  0  0  0  0  0  0  0  0  0  0  0
   -0.9881    2.1495   -0.7445 C   0  0  0  0  0  0  0  0  0  0  0  0
   -2.0224    1.3710   -1.3114 C   0  0  0  0  0  0  0  0  0  0  0  0
   -1.7562    0.3830   -2.2909 C   0  0  0  0  0  0  0  0  0  0  0  0
   -0.2802   -0.6363   -3.5103 H   0  0  0  0  0  0  0  0  0  0  0  0
    2.3627    0.7127   -2.7671 H   0  0  0  0  0  0  0  0  0  0  0  0
   -1.1489    2.9152    0.0036 H   0  0  0  0  0  0  0  0  0  0  0  0
   -3.0364    1.5509   -0.9735 H   0  0  0  0  0  0  0  0  0  0  0  0
    1.9117    3.1930   -0.0752 N   0  0  0  0  0  0  0  0  0  0  0  0
    2.9769    3.2860    0.2050 N   0  0  0  0  0  0  0  0  0  0  0  0
    6.4827    1.6459   -2.9705 C   0  0  0  0  0  0  0  0  0  0  0  0
    7.8063    1.2551   -3.1619 C   0  0  0  0  0  0  0  0  0  0  0  0
    8.2155    0.6365   -4.3530 C   0  0  0  0  0  0  0  0  0  0  0  0
    7.2625    0.4273   -5.3610 C   0  0  0  0  0  0  0  0  0  0  0  0
    5.9345    0.8124   -5.1889 C   0  0  0  0  0  0  0  0  0  0  0  0
    5.5562    1.4143   -3.9881 C   0  0  0  0  0  0  0  0  0  0  0  0
    6.1687    2.1376   -2.0563 H   0  0  0  0  0  0  0  0  0  0  0  0
    8.5354    1.4397   -2.3770 H   0  0  0  0  0  0  0  0  0  0  0  0
    7.5663   -0.0368   -6.2958 H   0  0  0  0  0  0  0  0  0  0  0  0
    5.2005    0.6657   -5.9741 H   0  0  0  0  0  0  0  0  0  0  0  0
    3.8615    1.9217   -3.7605 S   0  0  0  0  0  0  0  0  0  0  0  0
    3.8022    2.9860   -2.7538 O   0  0  0  0  0  0  0  0  0  0  0  0
    3.2916    0.5494   -3.0994 O   0  0  0  0  0  0  0  0  0  0  0  0
    3.2396    2.1258   -5.0686 O   0  0  0  0  0  0  0  0  0  0  0  0
    9.6462    0.1898   -4.5386 C   0  0  0  0  0  0  0  0  0  0  0  0
   10.3404    0.8263   -3.9825 H   0  0  0  0  0  0  0  0  0  0  0  0
    9.7849   -0.8372   -4.1776 H   0  0  0  0  0  0  0  0  0  0  0  0
    9.9372    0.2056   -5.5932 H   0  0  0  0  0  0  0  0  0  0  0  0
   -2.7228   -0.3884   -2.8637 O   0  0  0  0  0  0  0  0  0  0  0  0
   -4.0757   -0.1904   -2.4828 C   0  0  0  0  0  0  0  0  0  0  0  0
   -4.6607   -0.9012   -3.0680 H   0  0  0  0  0  0  0  0  0  0  0  0
   -4.4144    0.8288   -2.7111 H   0  0  0  0  0  0  0  0  0  0  0  0
   -4.2287   -0.3922   -1.4142 H   0  0  0  0  0  0  0  0  0  0  0  0
  1  6  2  0  0  0  0
  1  2  1  0  0  0  0
  2  3  2  0  0  0  0
  3  4  1  0  0  0  0
  4  9  1  0  0  0  0
  5 10  1  0  0  0  0
  5  4  2  0  0  0  0
  6  5  1  0  0  0  0
  7  1  1  0  0  0  0
 11 12  3  0  0  0  0
 13 19  1  0  0  0  0
 14 13  1  0  0  0  0
 14 20  1  0  0  0  0
 15 14  2  0  0  0  0
 16 17  2  0  0  0  0
 16 15  1  0  0  0  0
 17 18  1  0  0  0  0
 18 23  1  0  0  0  0
 18 13  2  0  0  0  0
 21 16  1  0  0  0  0
 22 17  1  0  0  0  0
 23 25  1  0  0  0  0
 23 24  2  0  0  0  0
 25  8  1  0  0  0  0
 26 23  2  0  0  0  0
 27 15  1  0  0  0  0
 27 29  1  0  0  0  0
 27 28  1  0  0  0  0
 30 27  1  0  0  0  0
 31 32  1  0  0  0  0
 31  6  1  0  0  0  0
 32 35  1  0  0  0  0
 33 32  1  0  0  0  0
 34 32  1  0  0  0  0
M  RAD  2   2   2   3   2
M  END
