Coordinates from ORCA-job p-CH3O-Ph-N2-OTs-B3LYP-6-31G_dp-scan-d09-49-n400
 OpenBabel02051708043D

 35 35  0  0  0  0  0  0  0  0999 V2000
   -0.3938    0.0133   -2.5812 C   0  0  0  0  0  0  0  0  0  0  0  0
    0.4396    0.9753   -3.1457 C   0  0  0  0  0  0  0  0  0  0  0  0
    0.0842    2.2594   -2.8017 C   0  0  0  0  0  0  0  0  0  0  0  0
   -0.9381    2.7192   -2.0074 C   0  0  0  0  0  0  0  0  0  0  0  0
   -1.7419    1.7188   -1.4537 C   0  0  0  0  0  0  0  0  0  0  0  0
   -1.4697    0.3676   -1.7408 C   0  0  0  0  0  0  0  0  0  0  0  0
   -0.2127   -1.0382   -2.7768 H   0  0  0  0  0  0  0  0  0  0  0  0
    1.2985    0.7360   -3.7842 H   0  0  0  0  0  0  0  0  0  0  0  0
   -1.1106    3.7704   -1.8153 H   0  0  0  0  0  0  0  0  0  0  0  0
   -2.5645    2.0061   -0.8113 H   0  0  0  0  0  0  0  0  0  0  0  0
    1.0389    3.5294   -3.4913 N   0  0  0  0  0  0  0  0  0  0  0  0
    1.7466    4.2043   -4.0245 N   0  0  0  0  0  0  0  0  0  0  0  0
    5.9442    0.5145   -5.0906 C   0  0  0  0  0  0  0  0  0  0  0  0
    7.2848    0.1324   -5.0867 C   0  0  0  0  0  0  0  0  0  0  0  0
    8.1327    0.4714   -4.0219 C   0  0  0  0  0  0  0  0  0  0  0  0
    7.5987    1.2083   -2.9552 C   0  0  0  0  0  0  0  0  0  0  0  0
    6.2598    1.5978   -2.9468 C   0  0  0  0  0  0  0  0  0  0  0  0
    5.4359    1.2489   -4.0176 C   0  0  0  0  0  0  0  0  0  0  0  0
    5.2861    0.2398   -5.9083 H   0  0  0  0  0  0  0  0  0  0  0  0
    7.6803   -0.4402   -5.9230 H   0  0  0  0  0  0  0  0  0  0  0  0
    8.2404    1.4792   -2.1195 H   0  0  0  0  0  0  0  0  0  0  0  0
    5.8427    2.1566   -2.1154 H   0  0  0  0  0  0  0  0  0  0  0  0
    3.7262    1.7973   -4.0349 S   0  0  0  0  0  0  0  0  0  0  0  0
    3.2982    1.9313   -2.6132 O   0  0  0  0  0  0  0  0  0  0  0  0
    2.9648    0.7433   -4.7765 O   0  0  0  0  0  0  0  0  0  0  0  0
    3.7229    3.1220   -4.7487 O   0  0  0  0  0  0  0  0  0  0  0  0
    9.5764    0.0247   -4.0098 C   0  0  0  0  0  0  0  0  0  0  0  0
    9.6791   -0.9723   -3.5616 H   0  0  0  0  0  0  0  0  0  0  0  0
    9.9873   -0.0327   -5.0228 H   0  0  0  0  0  0  0  0  0  0  0  0
   10.2026    0.7077   -3.4274 H   0  0  0  0  0  0  0  0  0  0  0  0
   -2.1875   -0.6689   -1.2570 O   0  0  0  0  0  0  0  0  0  0  0  0
   -3.2845   -0.4060   -0.3858 C   0  0  0  0  0  0  0  0  0  0  0  0
   -3.6951   -1.3812   -0.1245 H   0  0  0  0  0  0  0  0  0  0  0  0
   -4.0570    0.1914   -0.8856 H   0  0  0  0  0  0  0  0  0  0  0  0
   -2.9553    0.1053    0.5266 H   0  0  0  0  0  0  0  0  0  0  0  0
  1  6  2  0  0  0  0
  2  3  2  0  0  0  0
  2  1  1  0  0  0  0
  3  4  1  0  0  0  0
  4  9  1  0  0  0  0
  4  5  2  0  0  0  0
  5 10  1  0  0  0  0
  6  5  1  0  0  0  0
  6 31  1  0  0  0  0
  7  1  1  0  0  0  0
  8  2  1  0  0  0  0
 11  3  1  0  0  0  0
 12 11  1  0  0  0  0
 13 14  2  0  0  0  0
 13 18  1  0  0  0  0
 14 15  1  0  0  0  0
 15 27  1  0  0  0  0
 15 16  2  0  0  0  0
 16 17  1  0  0  0  0
 16 21  1  0  0  0  0
 17 22  1  0  0  0  0
 18 17  2  0  0  0  0
 19 13  1  0  0  0  0
 20 14  1  0  0  0  0
 23 18  1  0  0  0  0
 23 24  1  0  0  0  0
 25 23  2  0  0  0  0
 26 23  2  0  0  0  0
 27 28  1  0  0  0  0
 27 30  1  0  0  0  0
 29 27  1  0  0  0  0
 31 32  1  0  0  0  0
 32 33  1  0  0  0  0
 32 35  1  0  0  0  0
 34 32  1  0  0  0  0
M  RAD  3  11   2  12   3  24   2
M  END
