Coordinates from ORCA-job p-CH3O-Ph-N2-OTs-B3LYP-6-31G_dp-scan-d09-49-n400
 OpenBabel02051708043D

 35 35  0  0  0  0  0  0  0  0999 V2000
   -0.6428   -0.7271   -2.2365 C   0  0  0  0  0  0  0  0  0  0  0  0
    0.7122   -0.6125   -2.5184 C   0  0  0  0  0  0  0  0  0  0  0  0
    1.2650    0.6553   -2.7160 C   0  0  0  0  0  0  0  0  0  0  0  0
    0.4775    1.7987   -2.6435 C   0  0  0  0  0  0  0  0  0  0  0  0
   -0.8860    1.6857   -2.3593 C   0  0  0  0  0  0  0  0  0  0  0  0
   -1.4501    0.4195   -2.1548 C   0  0  0  0  0  0  0  0  0  0  0  0
   -1.1030   -1.6965   -2.0758 H   0  0  0  0  0  0  0  0  0  0  0  0
    1.3454   -1.4899   -2.5892 H   0  0  0  0  0  0  0  0  0  0  0  0
    0.9306    2.7700   -2.8085 H   0  0  0  0  0  0  0  0  0  0  0  0
   -1.4898    2.5839   -2.3044 H   0  0  0  0  0  0  0  0  0  0  0  0
    3.9079    2.2165   -0.0466 N   0  0  0  0  0  0  0  0  0  0  0  0
    4.5128    1.2977   -0.1544 N   0  0  0  0  0  0  0  0  0  0  0  0
    5.6921   -0.1763   -3.9123 C   0  0  0  0  0  0  0  0  0  0  0  0
    7.0499    0.0191   -3.6801 C   0  0  0  0  0  0  0  0  0  0  0  0
    7.6224    1.3001   -3.7504 C   0  0  0  0  0  0  0  0  0  0  0  0
    6.7963    2.3869   -4.0671 C   0  0  0  0  0  0  0  0  0  0  0  0
    5.4325    2.2129   -4.3015 C   0  0  0  0  0  0  0  0  0  0  0  0
    4.8944    0.9297   -4.2164 C   0  0  0  0  0  0  0  0  0  0  0  0
    5.2528   -1.1673   -3.8718 H   0  0  0  0  0  0  0  0  0  0  0  0
    7.6783   -0.8358   -3.4441 H   0  0  0  0  0  0  0  0  0  0  0  0
    7.2255    3.3828   -4.1365 H   0  0  0  0  0  0  0  0  0  0  0  0
    4.7945    3.0513   -4.5586 H   0  0  0  0  0  0  0  0  0  0  0  0
    3.1566    0.6934   -4.5234 S   0  0  0  0  0  0  0  0  0  0  0  0
    2.6495    0.7834   -2.9297 O   0  0  0  0  0  0  0  0  0  0  0  0
    2.9165   -0.6658   -5.0045 O   0  0  0  0  0  0  0  0  0  0  0  0
    2.6176    1.8447   -5.2447 O   0  0  0  0  0  0  0  0  0  0  0  0
    9.0967    1.4919   -3.4871 C   0  0  0  0  0  0  0  0  0  0  0  0
    9.7018    0.8349   -4.1209 H   0  0  0  0  0  0  0  0  0  0  0  0
    9.4077    2.5228   -3.6753 H   0  0  0  0  0  0  0  0  0  0  0  0
    9.3444    1.2519   -2.4462 H   0  0  0  0  0  0  0  0  0  0  0  0
   -2.7651    0.1940   -1.8704 O   0  0  0  0  0  0  0  0  0  0  0  0
   -3.6374    1.3102   -1.7916 C   0  0  0  0  0  0  0  0  0  0  0  0
   -4.6249    0.9056   -1.5637 H   0  0  0  0  0  0  0  0  0  0  0  0
   -3.6824    1.8569   -2.7429 H   0  0  0  0  0  0  0  0  0  0  0  0
   -3.3392    2.0030   -0.9935 H   0  0  0  0  0  0  0  0  0  0  0  0
  1  6  1  0  0  0  0
  1  7  1  0  0  0  0
  2  1  2  0  0  0  0
  3  4  2  0  0  0  0
  3  2  1  0  0  0  0
  4  5  1  0  0  0  0
  5 10  1  0  0  0  0
  5  6  2  0  0  0  0
  6 31  1  0  0  0  0
  8  2  1  0  0  0  0
  9  4  1  0  0  0  0
 12 11  3  0  0  0  0
 13 19  1  0  0  0  0
 13 14  2  0  0  0  0
 14 20  1  0  0  0  0
 15 14  1  0  0  0  0
 15 27  1  0  0  0  0
 16 15  2  0  0  0  0
 17 18  2  0  0  0  0
 17 16  1  0  0  0  0
 18 13  1  0  0  0  0
 21 16  1  0  0  0  0
 22 17  1  0  0  0  0
 23 18  1  0  0  0  0
 23 24  1  0  0  0  0
 24  3  1  0  0  0  0
 25 23  2  0  0  0  0
 26 23  2  0  0  0  0
 27 30  1  0  0  0  0
 28 27  1  0  0  0  0
 29 27  1  0  0  0  0
 31 32  1  0  0  0  0
 32 33  1  0  0  0  0
 32 35  1  0  0  0  0
 34 32  1  0  0  0  0
M  END
