Coordinates from ORCA-job p-CH3O-Ph-N2-OTs-B3LYP-6-31G_dp-scan-d09-49-n400
 OpenBabel02051708043D

 35 34  0  0  0  0  0  0  0  0999 V2000
   -0.7506   -0.3860   -2.8242 C   0  0  0  0  0  0  0  0  0  0  0  0
    0.4270    0.3354   -2.6180 C   0  0  0  0  0  0  0  0  0  0  0  0
    0.3635    1.4113   -1.9672 C   0  0  0  0  0  0  0  0  0  0  0  0
   -0.6235    2.1451   -1.3730 C   0  0  0  0  0  0  0  0  0  0  0  0
   -1.8409    1.4491   -1.5585 C   0  0  0  0  0  0  0  0  0  0  0  0
   -1.9046    0.2207   -2.2632 C   0  0  0  0  0  0  0  0  0  0  0  0
   -0.8423   -1.3230   -3.3630 H   0  0  0  0  0  0  0  0  0  0  0  0
    2.3103    0.1723   -3.3533 H   0  0  0  0  0  0  0  0  0  0  0  0
   -0.5387    3.0831   -0.8405 H   0  0  0  0  0  0  0  0  0  0  0  0
   -2.7408    1.8838   -1.1392 H   0  0  0  0  0  0  0  0  0  0  0  0
    2.3049    3.5301    0.0941 N   0  0  0  0  0  0  0  0  0  0  0  0
    3.3829    3.4346    0.3173 N   0  0  0  0  0  0  0  0  0  0  0  0
    6.2832    1.2857   -2.8664 C   0  0  0  0  0  0  0  0  0  0  0  0
    7.6467    1.0259   -2.9738 C   0  0  0  0  0  0  0  0  0  0  0  0
    8.2479    0.8046   -4.2234 C   0  0  0  0  0  0  0  0  0  0  0  0
    7.4461    0.8613   -5.3716 C   0  0  0  0  0  0  0  0  0  0  0  0
    6.0791    1.1220   -5.2852 C   0  0  0  0  0  0  0  0  0  0  0  0
    5.5097    1.3257   -4.0286 C   0  0  0  0  0  0  0  0  0  0  0  0
    5.8213    1.4726   -1.9029 H   0  0  0  0  0  0  0  0  0  0  0  0
    8.2568    0.9996   -2.0742 H   0  0  0  0  0  0  0  0  0  0  0  0
    7.8980    0.7043   -6.3475 H   0  0  0  0  0  0  0  0  0  0  0  0
    5.4607    1.1807   -6.1744 H   0  0  0  0  0  0  0  0  0  0  0  0
    3.7641    1.6637   -3.9063 S   0  0  0  0  0  0  0  0  0  0  0  0
    3.4913    2.4000   -2.6667 O   0  0  0  0  0  0  0  0  0  0  0  0
    3.2317    0.1348   -3.7174 O   0  0  0  0  0  0  0  0  0  0  0  0
    3.2867    2.1903   -5.1835 O   0  0  0  0  0  0  0  0  0  0  0  0
    9.7239    0.5004   -4.3206 C   0  0  0  0  0  0  0  0  0  0  0  0
   10.3105    1.1539   -3.6673 H   0  0  0  0  0  0  0  0  0  0  0  0
    9.9315   -0.5327   -4.0150 H   0  0  0  0  0  0  0  0  0  0  0  0
   10.0918    0.6219   -5.3431 H   0  0  0  0  0  0  0  0  0  0  0  0
   -3.0624   -0.4725   -2.4622 O   0  0  0  0  0  0  0  0  0  0  0  0
   -4.2802    0.0662   -1.9702 C   0  0  0  0  0  0  0  0  0  0  0  0
   -5.0603   -0.6399   -2.2598 H   0  0  0  0  0  0  0  0  0  0  0  0
   -4.4978    1.0458   -2.4153 H   0  0  0  0  0  0  0  0  0  0  0  0
   -4.2673    0.1610   -0.8762 H   0  0  0  0  0  0  0  0  0  0  0  0
  1  2  2  0  0  0  0
  1  6  1  0  0  0  0
  2  3  1  0  0  0  0
  3  4  2  0  0  0  0
  4  9  1  0  0  0  0
  5  4  1  0  0  0  0
  5 10  1  0  0  0  0
  6  5  2  0  0  0  0
  7  1  1  0  0  0  0
 11 12  3  0  0  0  0
 13 19  1  0  0  0  0
 14 13  1  0  0  0  0
 14 20  1  0  0  0  0
 15 14  2  0  0  0  0
 16 17  2  0  0  0  0
 16 15  1  0  0  0  0
 17 18  1  0  0  0  0
 18 23  1  0  0  0  0
 18 13  2  0  0  0  0
 21 16  1  0  0  0  0
 22 17  1  0  0  0  0
 23 25  1  0  0  0  0
 23 24  2  0  0  0  0
 25  8  1  0  0  0  0
 26 23  2  0  0  0  0
 27 15  1  0  0  0  0
 27 29  1  0  0  0  0
 27 28  1  0  0  0  0
 30 27  1  0  0  0  0
 31  6  1  0  0  0  0
 31 32  1  0  0  0  0
 32 35  1  0  0  0  0
 33 32  1  0  0  0  0
 34 32  1  0  0  0  0
M  RAD  2   2   2   3   2
M  END
