Coordinates from ORCA-job p-CH3O-Ph-N2-OTs-B3LYP-6-31G_dp-scan-d09-49-n400
 OpenBabel02051708043D

 35 34  0  0  0  0  0  0  0  0999 V2000
   -0.4246    0.1496   -2.8738 C   0  0  0  0  0  0  0  0  0  0  0  0
    0.5990    1.1095   -2.9088 C   0  0  0  0  0  0  0  0  0  0  0  0
    0.3191    2.1197   -2.0628 C   0  0  0  0  0  0  0  0  0  0  0  0
   -0.6860    2.4178   -1.1982 C   0  0  0  0  0  0  0  0  0  0  0  0
   -1.6784    1.4199   -1.1978 C   0  0  0  0  0  0  0  0  0  0  0  0
   -1.5459    0.2933   -2.0314 C   0  0  0  0  0  0  0  0  0  0  0  0
   -0.3518   -0.7281   -3.5083 H   0  0  0  0  0  0  0  0  0  0  0  0
    1.4959    1.0291   -3.5662 H   0  0  0  0  0  0  0  0  0  0  0  0
   -0.7402    3.3033   -0.5792 H   0  0  0  0  0  0  0  0  0  0  0  0
   -2.5338    1.5490   -0.5457 H   0  0  0  0  0  0  0  0  0  0  0  0
    1.6908    3.6064   -2.0589 N   0  0  0  0  0  0  0  0  0  0  0  0
    1.9717    4.6681   -1.9084 N   0  0  0  0  0  0  0  0  0  0  0  0
    5.6798    0.0770   -3.9176 C   0  0  0  0  0  0  0  0  0  0  0  0
    6.9813   -0.4163   -3.9795 C   0  0  0  0  0  0  0  0  0  0  0  0
    8.0728    0.4403   -4.1892 C   0  0  0  0  0  0  0  0  0  0  0  0
    7.8217    1.8099   -4.3473 C   0  0  0  0  0  0  0  0  0  0  0  0
    6.5234    2.3179   -4.2870 C   0  0  0  0  0  0  0  0  0  0  0  0
    5.4565    1.4470   -4.0689 C   0  0  0  0  0  0  0  0  0  0  0  0
    4.8373   -0.5914   -3.7750 H   0  0  0  0  0  0  0  0  0  0  0  0
    7.1546   -1.4849   -3.8693 H   0  0  0  0  0  0  0  0  0  0  0  0
    8.6528    2.4881   -4.5277 H   0  0  0  0  0  0  0  0  0  0  0  0
    6.3246    3.3753   -4.4269 H   0  0  0  0  0  0  0  0  0  0  0  0
    3.7876    2.1072   -3.9513 S   0  0  0  0  0  0  0  0  0  0  0  0
    3.4865    2.1472   -2.4702 O   0  0  0  0  0  0  0  0  0  0  0  0
    2.9093    1.0913   -4.6295 O   0  0  0  0  0  0  0  0  0  0  0  0
    3.7955    3.4427   -4.5808 O   0  0  0  0  0  0  0  0  0  0  0  0
    9.4837   -0.0994   -4.2252 C   0  0  0  0  0  0  0  0  0  0  0  0
    9.9152   -0.1488   -3.2170 H   0  0  0  0  0  0  0  0  0  0  0  0
    9.5151   -1.1119   -4.6401 H   0  0  0  0  0  0  0  0  0  0  0  0
   10.1401    0.5348   -4.8291 H   0  0  0  0  0  0  0  0  0  0  0  0
   -2.4489   -0.7121   -2.0968 O   0  0  0  0  0  0  0  0  0  0  0  0
   -3.6075   -0.6516   -1.2707 C   0  0  0  0  0  0  0  0  0  0  0  0
   -4.1755   -1.5565   -1.4893 H   0  0  0  0  0  0  0  0  0  0  0  0
   -4.2212    0.2273   -1.5056 H   0  0  0  0  0  0  0  0  0  0  0  0
   -3.3399   -0.6390   -0.2066 H   0  0  0  0  0  0  0  0  0  0  0  0
  1  6  1  0  0  0  0
  2  1  2  0  0  0  0
  2  3  1  0  0  0  0
  3  4  2  0  0  0  0
  4  5  1  0  0  0  0
  4  9  1  0  0  0  0
  5 10  1  0  0  0  0
  6  5  2  0  0  0  0
  7  1  1  0  0  0  0
  8  2  1  0  0  0  0
 11 12  3  0  0  0  0
 13 19  1  0  0  0  0
 14 13  1  0  0  0  0
 14 20  1  0  0  0  0
 15 14  2  0  0  0  0
 16 17  2  0  0  0  0
 16 15  1  0  0  0  0
 17 18  1  0  0  0  0
 18 23  1  0  0  0  0
 18 13  2  0  0  0  0
 21 16  1  0  0  0  0
 22 17  1  0  0  0  0
 23 24  1  0  0  0  0
 25 23  2  0  0  0  0
 26 23  2  0  0  0  0
 27 15  1  0  0  0  0
 27 28  1  0  0  0  0
 29 27  1  0  0  0  0
 30 27  1  0  0  0  0
 31  6  1  0  0  0  0
 31 32  1  0  0  0  0
 32 35  1  0  0  0  0
 33 32  1  0  0  0  0
 34 32  1  0  0  0  0
M  RAD  2   3   2  24   2
M  END
