Coordinates from ORCA-job p-CH3O-Ph-N2-OTs-B3LYP-6-31G_dp-scan-d09-49-n400
 OpenBabel02051708043D

 35 36  0  0  1  0  0  0  0  0999 V2000
    0.3334    0.3821   -3.2567 C   0  0  0  0  0  0  0  0  0  0  0  0
    0.8972    1.6248   -3.8334 C   0  0  1  0  0  0  0  0  0  0  0  0
    0.2315    2.9218   -3.2609 C   0  0  1  0  0  0  0  0  0  0  0  0
   -0.2377    2.7957   -1.8538 C   0  0  0  0  0  0  0  0  0  0  0  0
   -0.4497    1.5970   -1.2788 C   0  0  0  0  0  0  0  0  0  0  0  0
   -0.2400    0.3637   -2.0305 C   0  0  0  0  0  0  0  0  0  0  0  0
    0.4696   -0.5442   -3.8039 H   0  0  0  0  0  0  0  0  0  0  0  0
    0.8202    1.6554   -4.9238 H   0  0  0  0  0  0  0  0  0  0  0  0
   -0.4259    3.7287   -1.3297 H   0  0  0  0  0  0  0  0  0  0  0  0
   -0.7957    1.5540   -0.2532 H   0  0  0  0  0  0  0  0  0  0  0  0
    0.1641    3.7319   -3.7905 N   0  0  0  0  0  0  0  0  0  0  0  0
    0.0744    4.7115   -4.4298 N   0  0  0  0  0  0  0  0  0  0  0  0
    5.1747    0.3576   -4.8463 C   0  0  0  0  0  0  0  0  0  0  0  0
    6.3425   -0.3294   -4.5258 C   0  0  0  0  0  0  0  0  0  0  0  0
    7.1969    0.1249   -3.5093 C   0  0  0  0  0  0  0  0  0  0  0  0
    6.8574    1.3005   -2.8240 C   0  0  0  0  0  0  0  0  0  0  0  0
    5.6942    2.0040   -3.1303 C   0  0  0  0  0  0  0  0  0  0  0  0
    4.8600    1.5187   -4.1378 C   0  0  0  0  0  0  0  0  0  0  0  0
    4.5225    0.0151   -5.6428 H   0  0  0  0  0  0  0  0  0  0  0  0
    6.5983   -1.2305   -5.0772 H   0  0  0  0  0  0  0  0  0  0  0  0
    7.5159    1.6742   -2.0439 H   0  0  0  0  0  0  0  0  0  0  0  0
    5.4403    2.9225   -2.6124 H   0  0  0  0  0  0  0  0  0  0  0  0
    3.3716    2.4109   -4.5421 S   0  0  0  0  0  0  0  0  0  0  0  0
    2.3434    1.6414   -3.5004 O   0  0  0  0  0  0  0  0  0  0  0  0
    2.9551    2.0903   -5.9103 O   0  0  0  0  0  0  0  0  0  0  0  0
    3.5109    3.8030   -4.1185 O   0  0  0  0  0  0  0  0  0  0  0  0
    8.4443   -0.6465   -3.1513 C   0  0  0  0  0  0  0  0  0  0  0  0
    8.2188   -1.4386   -2.4259 H   0  0  0  0  0  0  0  0  0  0  0  0
    8.8837   -1.1266   -4.0309 H   0  0  0  0  0  0  0  0  0  0  0  0
    9.2020    0.0021   -2.7021 H   0  0  0  0  0  0  0  0  0  0  0  0
   -0.6200   -0.8462   -1.5303 O   0  0  0  0  0  0  0  0  0  0  0  0
   -1.4580   -0.9026   -0.3818 C   0  0  0  0  0  0  0  0  0  0  0  0
   -1.7306   -1.9528   -0.2671 H   0  0  0  0  0  0  0  0  0  0  0  0
   -2.3707   -0.3079   -0.5097 H   0  0  0  0  0  0  0  0  0  0  0  0
   -0.9341   -0.5747    0.5251 H   0  0  0  0  0  0  0  0  0  0  0  0
  1  6  2  0  0  0  0
  2  8  1  6  0  0  0
  2 24  1  0  0  0  0
  2  3  1  0  0  0  0
  2  1  1  0  0  0  0
  3 11  1  1  0  0  0
  3  4  1  0  0  0  0
  4  9  1  0  0  0  0
  4  5  2  0  0  0  0
  5 10  1  0  0  0  0
  6 31  1  0  0  0  0
  6  5  1  0  0  0  0
  7  1  1  0  0  0  0
 12 11  1  0  0  0  0
 13 14  2  0  0  0  0
 13 18  1  0  0  0  0
 14 15  1  0  0  0  0
 15 27  1  0  0  0  0
 15 16  2  0  0  0  0
 16 21  1  0  0  0  0
 17 16  1  0  0  0  0
 17 22  1  0  0  0  0
 18 17  2  0  0  0  0
 19 13  1  0  0  0  0
 20 14  1  0  0  0  0
 23 18  1  0  0  0  0
 23 26  2  0  0  0  0
 23 24  1  0  0  0  0
 25 23  2  0  0  0  0
 27 30  1  0  0  0  0
 27 28  1  0  0  0  0
 29 27  1  0  0  0  0
 31 32  1  0  0  0  0
 32 33  1  0  0  0  0
 32 35  1  0  0  0  0
 34 32  1  0  0  0  0
M  RAD  3   3   2  11   2  12   3
M  END
