Coordinates from ORCA-job p-CH3O-Ph-N2-OTs-B3LYP-6-31G_dp-scan-d09-49-n400
 OpenBabel02051708043D

 35 34  0  0  0  0  0  0  0  0999 V2000
   -0.3936    0.1747   -2.7229 C   0  0  0  0  0  0  0  0  0  0  0  0
    0.6135    0.9561   -2.1332 C   0  0  0  0  0  0  0  0  0  0  0  0
    0.2031    1.7796   -1.2573 C   0  0  0  0  0  0  0  0  0  0  0  0
   -0.9833    2.1573   -0.7027 C   0  0  0  0  0  0  0  0  0  0  0  0
   -2.0061    1.3797   -1.2873 C   0  0  0  0  0  0  0  0  0  0  0  0
   -1.7170    0.4088   -2.2764 C   0  0  0  0  0  0  0  0  0  0  0  0
   -0.2175   -0.5738   -3.4898 H   0  0  0  0  0  0  0  0  0  0  0  0
    2.3460    0.7331   -2.7467 H   0  0  0  0  0  0  0  0  0  0  0  0
   -1.1553    2.9118    0.0544 H   0  0  0  0  0  0  0  0  0  0  0  0
   -3.0248    1.5460   -0.9570 H   0  0  0  0  0  0  0  0  0  0  0  0
    1.7988    3.0758   -0.1532 N   0  0  0  0  0  0  0  0  0  0  0  0
    2.8708    3.1916    0.0925 N   0  0  0  0  0  0  0  0  0  0  0  0
    6.4696    1.6536   -2.9769 C   0  0  0  0  0  0  0  0  0  0  0  0
    7.7931    1.2610   -3.1656 C   0  0  0  0  0  0  0  0  0  0  0  0
    8.2015    0.6314   -4.3511 C   0  0  0  0  0  0  0  0  0  0  0  0
    7.2477    0.4131   -5.3564 C   0  0  0  0  0  0  0  0  0  0  0  0
    5.9198    0.8001   -5.1868 C   0  0  0  0  0  0  0  0  0  0  0  0
    5.5421    1.4130   -3.9914 C   0  0  0  0  0  0  0  0  0  0  0  0
    6.1562    2.1540   -2.0672 H   0  0  0  0  0  0  0  0  0  0  0  0
    8.5229    1.4529   -2.3830 H   0  0  0  0  0  0  0  0  0  0  0  0
    7.5507   -0.0595   -6.2872 H   0  0  0  0  0  0  0  0  0  0  0  0
    5.1852    0.6465   -5.9702 H   0  0  0  0  0  0  0  0  0  0  0  0
    3.8469    1.9224   -3.7672 S   0  0  0  0  0  0  0  0  0  0  0  0
    3.7903    2.9964   -2.7695 O   0  0  0  0  0  0  0  0  0  0  0  0
    3.2741    0.5609   -3.0961 O   0  0  0  0  0  0  0  0  0  0  0  0
    3.2281    2.1205   -5.0780 O   0  0  0  0  0  0  0  0  0  0  0  0
    9.6320    0.1829   -4.5338 C   0  0  0  0  0  0  0  0  0  0  0  0
   10.3265    0.8222   -3.9812 H   0  0  0  0  0  0  0  0  0  0  0  0
    9.7702   -0.8421   -4.1669 H   0  0  0  0  0  0  0  0  0  0  0  0
    9.9233    0.1924   -5.5884 H   0  0  0  0  0  0  0  0  0  0  0  0
   -2.6670   -0.3659   -2.8714 O   0  0  0  0  0  0  0  0  0  0  0  0
   -4.0266   -0.1888   -2.5040 C   0  0  0  0  0  0  0  0  0  0  0  0
   -4.5962   -0.8984   -3.1056 H   0  0  0  0  0  0  0  0  0  0  0  0
   -4.3747    0.8293   -2.7226 H   0  0  0  0  0  0  0  0  0  0  0  0
   -4.1899   -0.4069   -1.4401 H   0  0  0  0  0  0  0  0  0  0  0  0
  1  6  2  0  0  0  0
  1  2  1  0  0  0  0
  2  3  2  0  0  0  0
  3  4  1  0  0  0  0
  4  9  1  0  0  0  0
  5 10  1  0  0  0  0
  5  4  2  0  0  0  0
  6  5  1  0  0  0  0
  7  1  1  0  0  0  0
 11 12  3  0  0  0  0
 13 19  1  0  0  0  0
 14 13  1  0  0  0  0
 14 20  1  0  0  0  0
 15 14  2  0  0  0  0
 16 17  2  0  0  0  0
 16 15  1  0  0  0  0
 17 18  1  0  0  0  0
 18 23  1  0  0  0  0
 18 13  2  0  0  0  0
 21 16  1  0  0  0  0
 22 17  1  0  0  0  0
 23 25  1  0  0  0  0
 23 24  2  0  0  0  0
 25  8  1  0  0  0  0
 26 23  2  0  0  0  0
 27 15  1  0  0  0  0
 27 29  1  0  0  0  0
 27 28  1  0  0  0  0
 30 27  1  0  0  0  0
 31 32  1  0  0  0  0
 31  6  1  0  0  0  0
 32 35  1  0  0  0  0
 33 32  1  0  0  0  0
 34 32  1  0  0  0  0
M  RAD  2   2   2   3   2
M  END
