Coordinates from ORCA-job p-CH3O-Ph-N2-OTs-B3LYP-6-31G_dp-scan-d09-49-n400
 OpenBabel02051708043D

 35 34  0  0  0  0  0  0  0  0999 V2000
   -0.4100    0.1576   -2.7333 C   0  0  0  0  0  0  0  0  0  0  0  0
    0.5956    0.9409   -2.1461 C   0  0  0  0  0  0  0  0  0  0  0  0
    0.1959    1.7697   -1.2740 C   0  0  0  0  0  0  0  0  0  0  0  0
   -0.9867    2.1547   -0.7162 C   0  0  0  0  0  0  0  0  0  0  0  0
   -2.0129    1.3765   -1.2960 C   0  0  0  0  0  0  0  0  0  0  0  0
   -1.7310    0.4001   -2.2821 C   0  0  0  0  0  0  0  0  0  0  0  0
   -0.2385   -0.5948   -3.4972 H   0  0  0  0  0  0  0  0  0  0  0  0
    2.3537    0.7263   -2.7504 H   0  0  0  0  0  0  0  0  0  0  0  0
   -1.1556    2.9127    0.0380 H   0  0  0  0  0  0  0  0  0  0  0  0
   -3.0302    1.5472   -0.9637 H   0  0  0  0  0  0  0  0  0  0  0  0
    1.8361    3.1165   -0.1240 N   0  0  0  0  0  0  0  0  0  0  0  0
    2.9055    3.2250    0.1347 N   0  0  0  0  0  0  0  0  0  0  0  0
    6.4763    1.6526   -2.9752 C   0  0  0  0  0  0  0  0  0  0  0  0
    7.7996    1.2605   -3.1660 C   0  0  0  0  0  0  0  0  0  0  0  0
    8.2068    0.6330   -4.3530 C   0  0  0  0  0  0  0  0  0  0  0  0
    7.2519    0.4161   -5.3576 C   0  0  0  0  0  0  0  0  0  0  0  0
    5.9242    0.8025   -5.1860 C   0  0  0  0  0  0  0  0  0  0  0  0
    5.5479    1.4134   -3.9892 C   0  0  0  0  0  0  0  0  0  0  0  0
    6.1638    2.1514   -2.0642 H   0  0  0  0  0  0  0  0  0  0  0  0
    8.5302    1.4513   -2.3838 H   0  0  0  0  0  0  0  0  0  0  0  0
    7.5541   -0.0550   -6.2895 H   0  0  0  0  0  0  0  0  0  0  0  0
    5.1888    0.6499   -5.9687 H   0  0  0  0  0  0  0  0  0  0  0  0
    3.8531    1.9224   -3.7623 S   0  0  0  0  0  0  0  0  0  0  0  0
    3.7967    2.9942   -2.7629 O   0  0  0  0  0  0  0  0  0  0  0  0
    3.2824    0.5576   -3.0920 O   0  0  0  0  0  0  0  0  0  0  0  0
    3.2313    2.1203   -5.0716 O   0  0  0  0  0  0  0  0  0  0  0  0
    9.6371    0.1850   -4.5380 C   0  0  0  0  0  0  0  0  0  0  0  0
   10.3321    0.8233   -3.9847 H   0  0  0  0  0  0  0  0  0  0  0  0
    9.7758   -0.8407   -4.1732 H   0  0  0  0  0  0  0  0  0  0  0  0
    9.9275    0.1967   -5.5928 H   0  0  0  0  0  0  0  0  0  0  0  0
   -2.6863   -0.3734   -2.8703 O   0  0  0  0  0  0  0  0  0  0  0  0
   -4.0438   -0.1894   -2.4989 C   0  0  0  0  0  0  0  0  0  0  0  0
   -4.6184   -0.8993   -3.0956 H   0  0  0  0  0  0  0  0  0  0  0  0
   -4.3886    0.8291   -2.7207 H   0  0  0  0  0  0  0  0  0  0  0  0
   -4.2042   -0.4024   -1.4336 H   0  0  0  0  0  0  0  0  0  0  0  0
  1  6  2  0  0  0  0
  1  2  1  0  0  0  0
  2  3  2  0  0  0  0
  3  4  1  0  0  0  0
  4  9  1  0  0  0  0
  5 10  1  0  0  0  0
  5  4  2  0  0  0  0
  6  5  1  0  0  0  0
  7  1  1  0  0  0  0
 11 12  3  0  0  0  0
 13 19  1  0  0  0  0
 14 13  1  0  0  0  0
 14 20  1  0  0  0  0
 15 14  2  0  0  0  0
 16 17  2  0  0  0  0
 16 15  1  0  0  0  0
 17 18  1  0  0  0  0
 18 23  1  0  0  0  0
 18 13  2  0  0  0  0
 21 16  1  0  0  0  0
 22 17  1  0  0  0  0
 23 25  1  0  0  0  0
 23 24  2  0  0  0  0
 25  8  1  0  0  0  0
 26 23  2  0  0  0  0
 27 15  1  0  0  0  0
 27 29  1  0  0  0  0
 27 28  1  0  0  0  0
 30 27  1  0  0  0  0
 31 32  1  0  0  0  0
 31  6  1  0  0  0  0
 32 35  1  0  0  0  0
 33 32  1  0  0  0  0
 34 32  1  0  0  0  0
M  RAD  2   2   2   3   2
M  END
