Coordinates from ORCA-job p-CH3O-Ph-N2-OTs-B3LYP-6-31G_dp-scan-d09-49-n400
 OpenBabel02051708043D

 35 34  0  0  0  0  0  0  0  0999 V2000
   -0.3955    0.1726   -2.7247 C   0  0  0  0  0  0  0  0  0  0  0  0
    0.6114    0.9541   -2.1351 C   0  0  0  0  0  0  0  0  0  0  0  0
    0.2018    1.7778   -1.2595 C   0  0  0  0  0  0  0  0  0  0  0  0
   -0.9836    2.1567   -0.7040 C   0  0  0  0  0  0  0  0  0  0  0  0
   -2.0069    1.3790   -1.2882 C   0  0  0  0  0  0  0  0  0  0  0  0
   -1.7188    0.4077   -2.2773 C   0  0  0  0  0  0  0  0  0  0  0  0
   -0.2201   -0.5761   -3.4914 H   0  0  0  0  0  0  0  0  0  0  0  0
    2.3468    0.7327   -2.7471 H   0  0  0  0  0  0  0  0  0  0  0  0
   -1.1551    2.9114    0.0529 H   0  0  0  0  0  0  0  0  0  0  0  0
   -3.0254    1.5457   -0.9576 H   0  0  0  0  0  0  0  0  0  0  0  0
    1.8027    3.0805   -0.1493 N   0  0  0  0  0  0  0  0  0  0  0  0
    2.8743    3.1960    0.0980 N   0  0  0  0  0  0  0  0  0  0  0  0
    6.4707    1.6539   -2.9769 C   0  0  0  0  0  0  0  0  0  0  0  0
    7.7941    1.2612   -3.1658 C   0  0  0  0  0  0  0  0  0  0  0  0
    8.2022    0.6315   -4.3514 C   0  0  0  0  0  0  0  0  0  0  0  0
    7.2481    0.4131   -5.3564 C   0  0  0  0  0  0  0  0  0  0  0  0
    5.9203    0.8001   -5.1865 C   0  0  0  0  0  0  0  0  0  0  0  0
    5.5430    1.4132   -3.9911 C   0  0  0  0  0  0  0  0  0  0  0  0
    6.1575    2.1544   -2.0671 H   0  0  0  0  0  0  0  0  0  0  0  0
    8.5241    1.4533   -2.3834 H   0  0  0  0  0  0  0  0  0  0  0  0
    7.5509   -0.0597   -6.2872 H   0  0  0  0  0  0  0  0  0  0  0  0
    5.1855    0.6464   -5.9697 H   0  0  0  0  0  0  0  0  0  0  0  0
    3.8478    1.9227   -3.7665 S   0  0  0  0  0  0  0  0  0  0  0  0
    3.7917    2.9969   -2.7689 O   0  0  0  0  0  0  0  0  0  0  0  0
    3.2751    0.5610   -3.0953 O   0  0  0  0  0  0  0  0  0  0  0  0
    3.2285    2.1205   -5.0772 O   0  0  0  0  0  0  0  0  0  0  0  0
    9.6326    0.1829   -4.5344 C   0  0  0  0  0  0  0  0  0  0  0  0
   10.3273    0.8223   -3.9819 H   0  0  0  0  0  0  0  0  0  0  0  0
    9.7710   -0.8420   -4.1674 H   0  0  0  0  0  0  0  0  0  0  0  0
    9.9237    0.1924   -5.5890 H   0  0  0  0  0  0  0  0  0  0  0  0
   -2.6696   -0.3666   -2.8715 O   0  0  0  0  0  0  0  0  0  0  0  0
   -4.0288   -0.1888   -2.5034 C   0  0  0  0  0  0  0  0  0  0  0  0
   -4.5992   -0.8981   -3.1045 H   0  0  0  0  0  0  0  0  0  0  0  0
   -4.3764    0.8295   -2.7220 H   0  0  0  0  0  0  0  0  0  0  0  0
   -4.1916   -0.4065   -1.4394 H   0  0  0  0  0  0  0  0  0  0  0  0
  1  6  2  0  0  0  0
  1  2  1  0  0  0  0
  2  3  2  0  0  0  0
  3  4  1  0  0  0  0
  4  9  1  0  0  0  0
  5 10  1  0  0  0  0
  5  4  2  0  0  0  0
  6  5  1  0  0  0  0
  7  1  1  0  0  0  0
 11 12  3  0  0  0  0
 13 19  1  0  0  0  0
 14 13  1  0  0  0  0
 14 20  1  0  0  0  0
 15 14  2  0  0  0  0
 16 17  2  0  0  0  0
 16 15  1  0  0  0  0
 17 18  1  0  0  0  0
 18 23  1  0  0  0  0
 18 13  2  0  0  0  0
 21 16  1  0  0  0  0
 22 17  1  0  0  0  0
 23 25  1  0  0  0  0
 23 24  2  0  0  0  0
 25  8  1  0  0  0  0
 26 23  2  0  0  0  0
 27 15  1  0  0  0  0
 27 29  1  0  0  0  0
 27 28  1  0  0  0  0
 30 27  1  0  0  0  0
 31 32  1  0  0  0  0
 31  6  1  0  0  0  0
 32 35  1  0  0  0  0
 33 32  1  0  0  0  0
 34 32  1  0  0  0  0
M  RAD  2   2   2   3   2
M  END
