Coordinates from ORCA-job p-CH3O-Ph-N2-OTs-B3LYP-6-31G_dp-scan-d09-49-n400
 OpenBabel02051708043D

 35 34  0  0  0  0  0  0  0  0999 V2000
   -0.6407   -0.1977   -2.8037 C   0  0  0  0  0  0  0  0  0  0  0  0
    0.4457    0.5701   -2.3798 C   0  0  0  0  0  0  0  0  0  0  0  0
    0.2304    1.5538   -1.6246 C   0  0  0  0  0  0  0  0  0  0  0  0
   -0.8720    2.1365   -1.0657 C   0  0  0  0  0  0  0  0  0  0  0  0
   -2.0030    1.3901   -1.4700 C   0  0  0  0  0  0  0  0  0  0  0  0
   -1.8929    0.2567   -2.3138 C   0  0  0  0  0  0  0  0  0  0  0  0
   -0.5975   -1.0660   -3.4527 H   0  0  0  0  0  0  0  0  0  0  0  0
    2.3657    0.4104   -2.9387 H   0  0  0  0  0  0  0  0  0  0  0  0
   -0.9240    3.0078   -0.4256 H   0  0  0  0  0  0  0  0  0  0  0  0
   -2.9744    1.7099   -1.1110 H   0  0  0  0  0  0  0  0  0  0  0  0
    2.4240    3.6310    0.1356 N   0  0  0  0  0  0  0  0  0  0  0  0
    3.4713    3.6910    0.4834 N   0  0  0  0  0  0  0  0  0  0  0  0
    6.4369    1.4755   -2.8853 C   0  0  0  0  0  0  0  0  0  0  0  0
    7.7781    1.1535   -3.0782 C   0  0  0  0  0  0  0  0  0  0  0  0
    8.2482    0.7192   -4.3274 C   0  0  0  0  0  0  0  0  0  0  0  0
    7.3381    0.6253   -5.3902 C   0  0  0  0  0  0  0  0  0  0  0  0
    5.9922    0.9435   -5.2173 C   0  0  0  0  0  0  0  0  0  0  0  0
    5.5538    1.3607   -3.9605 C   0  0  0  0  0  0  0  0  0  0  0  0
    6.0762    1.8269   -1.9247 H   0  0  0  0  0  0  0  0  0  0  0  0
    8.4733    1.2466   -2.2475 H   0  0  0  0  0  0  0  0  0  0  0  0
    7.6892    0.3039   -6.3673 H   0  0  0  0  0  0  0  0  0  0  0  0
    5.2900    0.8853   -6.0422 H   0  0  0  0  0  0  0  0  0  0  0  0
    3.8361    1.7787   -3.7301 S   0  0  0  0  0  0  0  0  0  0  0  0
    3.7049    2.7138   -2.6093 O   0  0  0  0  0  0  0  0  0  0  0  0
    3.3035    0.3148   -3.2472 O   0  0  0  0  0  0  0  0  0  0  0  0
    3.2398    2.1075   -5.0242 O   0  0  0  0  0  0  0  0  0  0  0  0
    9.6992    0.3455   -4.5158 C   0  0  0  0  0  0  0  0  0  0  0  0
   10.3582    0.9854   -3.9216 H   0  0  0  0  0  0  0  0  0  0  0  0
    9.8801   -0.6896   -4.1997 H   0  0  0  0  0  0  0  0  0  0  0  0
   10.0004    0.4246   -5.5644 H   0  0  0  0  0  0  0  0  0  0  0  0
   -2.9630   -0.4826   -2.7232 O   0  0  0  0  0  0  0  0  0  0  0  0
   -4.2661   -0.0891   -2.3196 C   0  0  0  0  0  0  0  0  0  0  0  0
   -4.9511   -0.8065   -2.7736 H   0  0  0  0  0  0  0  0  0  0  0  0
   -4.5116    0.9195   -2.6766 H   0  0  0  0  0  0  0  0  0  0  0  0
   -4.3787   -0.1243   -1.2278 H   0  0  0  0  0  0  0  0  0  0  0  0
  1  2  2  0  0  0  0
  1  6  1  0  0  0  0
  2  3  1  0  0  0  0
  3  4  2  0  0  0  0
  4  9  1  0  0  0  0
  5 10  1  0  0  0  0
  5  4  1  0  0  0  0
  6  5  2  0  0  0  0
  7  1  1  0  0  0  0
 11 12  3  0  0  0  0
 13 19  1  0  0  0  0
 14 13  1  0  0  0  0
 14 20  1  0  0  0  0
 15 14  2  0  0  0  0
 16 17  2  0  0  0  0
 16 15  1  0  0  0  0
 17 18  1  0  0  0  0
 18 23  1  0  0  0  0
 18 13  2  0  0  0  0
 21 16  1  0  0  0  0
 22 17  1  0  0  0  0
 23 25  1  0  0  0  0
 23 24  2  0  0  0  0
 25  8  1  0  0  0  0
 26 23  2  0  0  0  0
 27 15  1  0  0  0  0
 27 29  1  0  0  0  0
 27 28  1  0  0  0  0
 30 27  1  0  0  0  0
 31 32  1  0  0  0  0
 31  6  1  0  0  0  0
 32 35  1  0  0  0  0
 33 32  1  0  0  0  0
 34 32  1  0  0  0  0
M  RAD  2   2   2   3   2
M  END
