Coordinates from ORCA-job p-CH3O-Ph-N2-OTs-B3LYP-6-31G_dp-scan-d09-49-n400
 OpenBabel02051708043D

 35 35  0  0  0  0  0  0  0  0999 V2000
   -0.4362    0.0058   -2.5689 C   0  0  0  0  0  0  0  0  0  0  0  0
    0.4209    0.9504   -3.1206 C   0  0  0  0  0  0  0  0  0  0  0  0
    0.1058    2.2552   -2.7865 C   0  0  0  0  0  0  0  0  0  0  0  0
   -0.9240    2.7182   -1.9944 C   0  0  0  0  0  0  0  0  0  0  0  0
   -1.7552    1.7389   -1.4501 C   0  0  0  0  0  0  0  0  0  0  0  0
   -1.5114    0.3821   -1.7373 C   0  0  0  0  0  0  0  0  0  0  0  0
   -0.2785   -1.0491   -2.7656 H   0  0  0  0  0  0  0  0  0  0  0  0
    1.2752    0.6880   -3.7514 H   0  0  0  0  0  0  0  0  0  0  0  0
   -1.0780    3.7722   -1.7993 H   0  0  0  0  0  0  0  0  0  0  0  0
   -2.5774    2.0425   -0.8148 H   0  0  0  0  0  0  0  0  0  0  0  0
    1.0542    3.4565   -3.4341 N   0  0  0  0  0  0  0  0  0  0  0  0
    1.7795    4.1245   -3.9576 N   0  0  0  0  0  0  0  0  0  0  0  0
    5.9726    0.5015   -5.0994 C   0  0  0  0  0  0  0  0  0  0  0  0
    7.3229    0.1553   -5.1087 C   0  0  0  0  0  0  0  0  0  0  0  0
    8.1686    0.5041   -4.0455 C   0  0  0  0  0  0  0  0  0  0  0  0
    7.6227    1.2140   -2.9665 C   0  0  0  0  0  0  0  0  0  0  0  0
    6.2741    1.5677   -2.9447 C   0  0  0  0  0  0  0  0  0  0  0  0
    5.4526    1.2094   -4.0144 C   0  0  0  0  0  0  0  0  0  0  0  0
    5.3166    0.2187   -5.9160 H   0  0  0  0  0  0  0  0  0  0  0  0
    7.7278   -0.3966   -5.9543 H   0  0  0  0  0  0  0  0  0  0  0  0
    8.2625    1.4919   -2.1317 H   0  0  0  0  0  0  0  0  0  0  0  0
    5.8477    2.1053   -2.1041 H   0  0  0  0  0  0  0  0  0  0  0  0
    3.7287    1.7100   -4.0143 S   0  0  0  0  0  0  0  0  0  0  0  0
    3.3090    1.8301   -2.5894 O   0  0  0  0  0  0  0  0  0  0  0  0
    2.9884    0.6475   -4.7597 O   0  0  0  0  0  0  0  0  0  0  0  0
    3.6882    3.0434   -4.7192 O   0  0  0  0  0  0  0  0  0  0  0  0
    9.6238    0.0960   -4.0479 C   0  0  0  0  0  0  0  0  0  0  0  0
    9.7572   -0.8986   -3.6025 H   0  0  0  0  0  0  0  0  0  0  0  0
   10.0261    0.0510   -5.0649 H   0  0  0  0  0  0  0  0  0  0  0  0
   10.2373    0.7945   -3.4704 H   0  0  0  0  0  0  0  0  0  0  0  0
   -2.2566   -0.6380   -1.2624 O   0  0  0  0  0  0  0  0  0  0  0  0
   -3.3570   -0.3528   -0.4021 C   0  0  0  0  0  0  0  0  0  0  0  0
   -3.7911   -1.3195   -0.1472 H   0  0  0  0  0  0  0  0  0  0  0  0
   -4.1108    0.2620   -0.9090 H   0  0  0  0  0  0  0  0  0  0  0  0
   -3.0262    0.1496    0.5147 H   0  0  0  0  0  0  0  0  0  0  0  0
  1  6  2  0  0  0  0
  2  3  2  0  0  0  0
  2  1  1  0  0  0  0
  3  4  1  0  0  0  0
  4  9  1  0  0  0  0
  4  5  2  0  0  0  0
  5 10  1  0  0  0  0
  6  5  1  0  0  0  0
  6 31  1  0  0  0  0
  7  1  1  0  0  0  0
  8  2  1  0  0  0  0
 11  3  1  0  0  0  0
 12 11  1  0  0  0  0
 13 18  1  0  0  0  0
 14 13  2  0  0  0  0
 14 15  1  0  0  0  0
 15 16  2  0  0  0  0
 16 17  1  0  0  0  0
 16 21  1  0  0  0  0
 17 22  1  0  0  0  0
 18 23  1  0  0  0  0
 18 17  2  0  0  0  0
 19 13  1  0  0  0  0
 20 14  1  0  0  0  0
 23 24  1  0  0  0  0
 25 23  2  0  0  0  0
 26 23  2  0  0  0  0
 27 15  1  0  0  0  0
 27 28  1  0  0  0  0
 27 30  1  0  0  0  0
 29 27  1  0  0  0  0
 31 32  1  0  0  0  0
 32 33  1  0  0  0  0
 32 35  1  0  0  0  0
 34 32  1  0  0  0  0
M  RAD  3  11   2  12   3  24   2
M  END
