Coordinates from ORCA-job p-CH3O-Ph-N2-OTs-B3LYP-6-31G_dp-scan-d09-49-n400
 OpenBabel02051708043D

 35 36  0  0  1  0  0  0  0  0999 V2000
    0.3323    0.3733   -3.2590 C   0  0  0  0  0  0  0  0  0  0  0  0
    0.9007    1.6115   -3.8404 C   0  0  1  0  0  0  0  0  0  0  0  0
    0.2270    2.9222   -3.2812 C   0  0  1  0  0  0  0  0  0  0  0  0
   -0.2247    2.7956   -1.8619 C   0  0  0  0  0  0  0  0  0  0  0  0
   -0.4343    1.5997   -1.2822 C   0  0  0  0  0  0  0  0  0  0  0  0
   -0.2361    0.3619   -2.0308 C   0  0  0  0  0  0  0  0  0  0  0  0
    0.4606   -0.5553   -3.8045 H   0  0  0  0  0  0  0  0  0  0  0  0
    0.8253    1.6402   -4.9311 H   0  0  0  0  0  0  0  0  0  0  0  0
   -0.4041    3.7319   -1.3406 H   0  0  0  0  0  0  0  0  0  0  0  0
   -0.7696    1.5611   -0.2527 H   0  0  0  0  0  0  0  0  0  0  0  0
    0.1488    3.6992   -3.8046 N   0  0  0  0  0  0  0  0  0  0  0  0
    0.0422    4.6732   -4.4589 N   0  0  0  0  0  0  0  0  0  0  0  0
    5.1767    0.3714   -4.8498 C   0  0  0  0  0  0  0  0  0  0  0  0
    6.3442   -0.3184   -4.5341 C   0  0  0  0  0  0  0  0  0  0  0  0
    7.1957    0.1250   -3.5103 C   0  0  0  0  0  0  0  0  0  0  0  0
    6.8535    1.2924   -2.8125 C   0  0  0  0  0  0  0  0  0  0  0  0
    5.6906    1.9986   -3.1138 C   0  0  0  0  0  0  0  0  0  0  0  0
    4.8594    1.5242   -4.1290 C   0  0  0  0  0  0  0  0  0  0  0  0
    4.5270    0.0375   -5.6521 H   0  0  0  0  0  0  0  0  0  0  0  0
    6.6020   -1.2129   -5.0952 H   0  0  0  0  0  0  0  0  0  0  0  0
    7.5096    1.6577   -2.0264 H   0  0  0  0  0  0  0  0  0  0  0  0
    5.4346    2.9109   -2.5861 H   0  0  0  0  0  0  0  0  0  0  0  0
    3.3720    2.4204   -4.5274 S   0  0  0  0  0  0  0  0  0  0  0  0
    2.3397    1.6343   -3.4990 O   0  0  0  0  0  0  0  0  0  0  0  0
    2.9604    2.1171   -5.9007 O   0  0  0  0  0  0  0  0  0  0  0  0
    3.5069    3.8058   -4.0823 O   0  0  0  0  0  0  0  0  0  0  0  0
    8.4428   -0.6494   -3.1580 C   0  0  0  0  0  0  0  0  0  0  0  0
    8.2161   -1.4507   -2.4433 H   0  0  0  0  0  0  0  0  0  0  0  0
    8.8854   -1.1181   -4.0422 H   0  0  0  0  0  0  0  0  0  0  0  0
    9.1984   -0.0056   -2.6985 H   0  0  0  0  0  0  0  0  0  0  0  0
   -0.6209   -0.8433   -1.5239 O   0  0  0  0  0  0  0  0  0  0  0  0
   -1.4599   -0.8899   -0.3754 C   0  0  0  0  0  0  0  0  0  0  0  0
   -1.7393   -1.9380   -0.2569 H   0  0  0  0  0  0  0  0  0  0  0  0
   -2.3685   -0.2898   -0.5060 H   0  0  0  0  0  0  0  0  0  0  0  0
   -0.9342   -0.5621    0.5304 H   0  0  0  0  0  0  0  0  0  0  0  0
  1  6  2  0  0  0  0
  2  8  1  6  0  0  0
  2 24  1  0  0  0  0
  2  3  1  0  0  0  0
  2  1  1  0  0  0  0
  3 11  1  1  0  0  0
  3  4  1  0  0  0  0
  4  9  1  0  0  0  0
  4  5  2  0  0  0  0
  5 10  1  0  0  0  0
  6 31  1  0  0  0  0
  6  5  1  0  0  0  0
  7  1  1  0  0  0  0
 12 11  1  0  0  0  0
 13 14  2  0  0  0  0
 13 18  1  0  0  0  0
 14 15  1  0  0  0  0
 15 27  1  0  0  0  0
 15 16  2  0  0  0  0
 16 21  1  0  0  0  0
 17 16  1  0  0  0  0
 17 22  1  0  0  0  0
 18 17  2  0  0  0  0
 19 13  1  0  0  0  0
 20 14  1  0  0  0  0
 23 18  1  0  0  0  0
 23 26  2  0  0  0  0
 23 24  1  0  0  0  0
 25 23  2  0  0  0  0
 27 30  1  0  0  0  0
 27 28  1  0  0  0  0
 29 27  1  0  0  0  0
 31 32  1  0  0  0  0
 32 33  1  0  0  0  0
 32 35  1  0  0  0  0
 34 32  1  0  0  0  0
M  RAD  3   3   2  11   2  12   3
M  END
