Coordinates from ORCA-job p-CH3O-Ph-N2-OTs-B3LYP-6-31G_dp-scan-d09-49-n400
 OpenBabel02051708043D

 35 34  0  0  0  0  0  0  0  0999 V2000
   -0.4203    0.1459   -2.7395 C   0  0  0  0  0  0  0  0  0  0  0  0
    0.5856    0.9300   -2.1553 C   0  0  0  0  0  0  0  0  0  0  0  0
    0.1928    1.7627   -1.2856 C   0  0  0  0  0  0  0  0  0  0  0  0
   -0.9866    2.1533   -0.7253 C   0  0  0  0  0  0  0  0  0  0  0  0
   -2.0157    1.3751   -1.3009 C   0  0  0  0  0  0  0  0  0  0  0  0
   -1.7394    0.3945   -2.2847 C   0  0  0  0  0  0  0  0  0  0  0  0
   -0.2526   -0.6093   -3.5013 H   0  0  0  0  0  0  0  0  0  0  0  0
    2.3568    0.7199   -2.7563 H   0  0  0  0  0  0  0  0  0  0  0  0
   -1.1526    2.9141    0.0267 H   0  0  0  0  0  0  0  0  0  0  0  0
   -3.0320    1.5492   -0.9669 H   0  0  0  0  0  0  0  0  0  0  0  0
    1.8606    3.1421   -0.1081 N   0  0  0  0  0  0  0  0  0  0  0  0
    2.9285    3.2459    0.1581 N   0  0  0  0  0  0  0  0  0  0  0  0
    6.4778    1.6494   -2.9736 C   0  0  0  0  0  0  0  0  0  0  0  0
    7.8015    1.2583   -3.1643 C   0  0  0  0  0  0  0  0  0  0  0  0
    8.2100    0.6346   -4.3529 C   0  0  0  0  0  0  0  0  0  0  0  0
    7.2562    0.4205   -5.3591 C   0  0  0  0  0  0  0  0  0  0  0  0
    5.9281    0.8058   -5.1876 C   0  0  0  0  0  0  0  0  0  0  0  0
    5.5505    1.4129   -3.9893 C   0  0  0  0  0  0  0  0  0  0  0  0
    6.1643    2.1452   -2.0614 H   0  0  0  0  0  0  0  0  0  0  0  0
    8.5312    1.4469   -2.3808 H   0  0  0  0  0  0  0  0  0  0  0  0
    7.5594   -0.0476   -6.2921 H   0  0  0  0  0  0  0  0  0  0  0  0
    5.1935    0.6553   -5.9715 H   0  0  0  0  0  0  0  0  0  0  0  0
    3.8555    1.9207   -3.7625 S   0  0  0  0  0  0  0  0  0  0  0  0
    3.7977    2.9903   -2.7609 O   0  0  0  0  0  0  0  0  0  0  0  0
    3.2854    0.5532   -3.0951 O   0  0  0  0  0  0  0  0  0  0  0  0
    3.2336    2.1200   -5.0715 O   0  0  0  0  0  0  0  0  0  0  0  0
    9.6407    0.1878   -4.5378 C   0  0  0  0  0  0  0  0  0  0  0  0
   10.3349    0.8250   -3.9824 H   0  0  0  0  0  0  0  0  0  0  0  0
    9.7795   -0.8388   -4.1755 H   0  0  0  0  0  0  0  0  0  0  0  0
    9.9318    0.2022   -5.5924 H   0  0  0  0  0  0  0  0  0  0  0  0
   -2.6989   -0.3781   -2.8677 O   0  0  0  0  0  0  0  0  0  0  0  0
   -4.0548   -0.1888   -2.4931 C   0  0  0  0  0  0  0  0  0  0  0  0
   -4.6331   -0.8988   -3.0858 H   0  0  0  0  0  0  0  0  0  0  0  0
   -4.3971    0.8301   -2.7171 H   0  0  0  0  0  0  0  0  0  0  0  0
   -4.2127   -0.3978   -1.4266 H   0  0  0  0  0  0  0  0  0  0  0  0
  1  6  2  0  0  0  0
  1  2  1  0  0  0  0
  2  3  2  0  0  0  0
  3  4  1  0  0  0  0
  4  9  1  0  0  0  0
  5 10  1  0  0  0  0
  5  4  2  0  0  0  0
  6  5  1  0  0  0  0
  7  1  1  0  0  0  0
 11 12  3  0  0  0  0
 13 19  1  0  0  0  0
 14 13  1  0  0  0  0
 14 20  1  0  0  0  0
 15 14  2  0  0  0  0
 16 17  2  0  0  0  0
 16 15  1  0  0  0  0
 17 18  1  0  0  0  0
 18 23  1  0  0  0  0
 18 13  2  0  0  0  0
 21 16  1  0  0  0  0
 22 17  1  0  0  0  0
 23 25  1  0  0  0  0
 23 24  2  0  0  0  0
 25  8  1  0  0  0  0
 26 23  2  0  0  0  0
 27 15  1  0  0  0  0
 27 29  1  0  0  0  0
 27 28  1  0  0  0  0
 30 27  1  0  0  0  0
 31 32  1  0  0  0  0
 31  6  1  0  0  0  0
 32 35  1  0  0  0  0
 33 32  1  0  0  0  0
 34 32  1  0  0  0  0
M  RAD  2   2   2   3   2
M  END
