Coordinates from ORCA-job p-CH3O-Ph-N2-OTs-B3LYP-6-31G_dp-scan-d09-49-n400
 OpenBabel02051708043D

 35 36  0  0  1  0  0  0  0  0999 V2000
    0.0652    0.5364   -3.3376 C   0  0  0  0  0  0  0  0  0  0  0  0
    0.7730    1.7587   -3.7408 C   0  0  1  0  0  0  0  0  0  0  0  0
    0.4268    2.8712   -2.8412 C   0  0  1  0  0  0  0  0  0  0  0  0
   -0.1155    2.7170   -1.5376 C   0  0  0  0  0  0  0  0  0  0  0  0
   -0.5530    1.4839   -1.1525 C   0  0  0  0  0  0  0  0  0  0  0  0
   -0.4906    0.3909   -2.0986 C   0  0  0  0  0  0  0  0  0  0  0  0
    0.0571   -0.3005   -4.0259 H   0  0  0  0  0  0  0  0  0  0  0  0
    0.6776    1.9865   -4.8026 H   0  0  0  0  0  0  0  0  0  0  0  0
   -0.1831    3.5743   -0.8760 H   0  0  0  0  0  0  0  0  0  0  0  0
   -0.9631    1.3425   -0.1618 H   0  0  0  0  0  0  0  0  0  0  0  0
    0.7846    4.2035   -3.2587 N   0  0  0  0  0  0  0  0  0  0  0  0
    1.0610    5.2437   -3.5984 N   0  0  0  0  0  0  0  0  0  0  0  0
    5.1962    0.0363   -4.7172 C   0  0  0  0  0  0  0  0  0  0  0  0
    6.4251   -0.4887   -4.3218 C   0  0  0  0  0  0  0  0  0  0  0  0
    7.3005    0.2464   -3.5094 C   0  0  0  0  0  0  0  0  0  0  0  0
    6.9179    1.5354   -3.1067 C   0  0  0  0  0  0  0  0  0  0  0  0
    5.6932    2.0768   -3.4908 C   0  0  0  0  0  0  0  0  0  0  0  0
    4.8391    1.3163   -4.2913 C   0  0  0  0  0  0  0  0  0  0  0  0
    4.5258   -0.5257   -5.3591 H   0  0  0  0  0  0  0  0  0  0  0  0
    6.7125   -1.4822   -4.6549 H   0  0  0  0  0  0  0  0  0  0  0  0
    7.5921    2.1255   -2.4905 H   0  0  0  0  0  0  0  0  0  0  0  0
    5.4036    3.0787   -3.1940 H   0  0  0  0  0  0  0  0  0  0  0  0
    3.2687    1.9970   -4.7953 S   0  0  0  0  0  0  0  0  0  0  0  0
    2.3419    1.4368   -3.5996 O   0  0  0  0  0  0  0  0  0  0  0  0
    2.8541    1.3814   -6.0622 O   0  0  0  0  0  0  0  0  0  0  0  0
    3.3288    3.4647   -4.7132 O   0  0  0  0  0  0  0  0  0  0  0  0
    8.6191   -0.3392   -3.0633 C   0  0  0  0  0  0  0  0  0  0  0  0
    8.5419   -0.7503   -2.0489 H   0  0  0  0  0  0  0  0  0  0  0  0
    8.9410   -1.1510   -3.7219 H   0  0  0  0  0  0  0  0  0  0  0  0
    9.4082    0.4195   -3.0452 H   0  0  0  0  0  0  0  0  0  0  0  0
   -1.0203   -0.8345   -1.8152 O   0  0  0  0  0  0  0  0  0  0  0  0
   -1.7462   -1.0234   -0.6088 C   0  0  0  0  0  0  0  0  0  0  0  0
   -2.1129   -2.0506   -0.6425 H   0  0  0  0  0  0  0  0  0  0  0  0
   -2.6016   -0.3406   -0.5329 H   0  0  0  0  0  0  0  0  0  0  0  0
   -1.1082   -0.9046    0.2763 H   0  0  0  0  0  0  0  0  0  0  0  0
  1  6  2  0  0  0  0
  2  8  1  6  0  0  0
  2 24  1  0  0  0  0
  2  1  1  0  0  0  0
  2  3  1  0  0  0  0
  3 11  1  1  0  0  0
  3  4  1  0  0  0  0
  4  5  2  0  0  0  0
  4  9  1  0  0  0  0
  5 10  1  0  0  0  0
  6 31  1  0  0  0  0
  6  5  1  0  0  0  0
  7  1  1  0  0  0  0
 12 11  1  0  0  0  0
 13 14  2  0  0  0  0
 13 18  1  0  0  0  0
 14 15  1  0  0  0  0
 15 16  2  0  0  0  0
 15 27  1  0  0  0  0
 16 21  1  0  0  0  0
 17 22  1  0  0  0  0
 17 16  1  0  0  0  0
 18 17  2  0  0  0  0
 19 13  1  0  0  0  0
 20 14  1  0  0  0  0
 23 26  2  0  0  0  0
 23 18  1  0  0  0  0
 23 24  1  0  0  0  0
 25 23  2  0  0  0  0
 27 30  1  0  0  0  0
 27 28  1  0  0  0  0
 29 27  1  0  0  0  0
 31 32  1  0  0  0  0
 32 34  1  0  0  0  0
 32 35  1  0  0  0  0
 33 32  1  0  0  0  0
M  RAD  3   3   2  11   2  12   3
M  END
