Coordinates from ORCA-job p-CH3O-Ph-N2-OTs-B3LYP-6-31G_dp-scan-d09-49-n400
 OpenBabel02051708043D

 35 34  0  0  0  0  0  0  0  0999 V2000
   -0.4921    0.0627   -2.7819 C   0  0  0  0  0  0  0  0  0  0  0  0
    0.5211    0.8521   -2.2270 C   0  0  0  0  0  0  0  0  0  0  0  0
    0.1781    1.7171   -1.3754 C   0  0  0  0  0  0  0  0  0  0  0  0
   -0.9853    2.1428   -0.8040 C   0  0  0  0  0  0  0  0  0  0  0  0
   -2.0353    1.3641   -1.3433 C   0  0  0  0  0  0  0  0  0  0  0  0
   -1.7966    0.3519   -2.3057 C   0  0  0  0  0  0  0  0  0  0  0  0
   -0.3509   -0.7155   -3.5250 H   0  0  0  0  0  0  0  0  0  0  0  0
    2.3708    0.6808   -2.7937 H   0  0  0  0  0  0  0  0  0  0  0  0
   -1.1302    2.9256   -0.0705 H   0  0  0  0  0  0  0  0  0  0  0  0
   -3.0428    1.5633   -0.9969 H   0  0  0  0  0  0  0  0  0  0  0  0
    2.0497    3.3280   -0.0036 N   0  0  0  0  0  0  0  0  0  0  0  0
    3.1066    3.4075    0.3091 N   0  0  0  0  0  0  0  0  0  0  0  0
    6.4897    1.6248   -2.9553 C   0  0  0  0  0  0  0  0  0  0  0  0
    7.8139    1.2382   -3.1503 C   0  0  0  0  0  0  0  0  0  0  0  0
    8.2271    0.6439   -4.3523 C   0  0  0  0  0  0  0  0  0  0  0  0
    7.2776    0.4547   -5.3675 C   0  0  0  0  0  0  0  0  0  0  0  0
    5.9488    0.8358   -5.1919 C   0  0  0  0  0  0  0  0  0  0  0  0
    5.5666    1.4133   -3.9805 C   0  0  0  0  0  0  0  0  0  0  0  0
    6.1726    2.0980   -2.0324 H   0  0  0  0  0  0  0  0  0  0  0  0
    8.5403    1.4071   -2.3593 H   0  0  0  0  0  0  0  0  0  0  0  0
    7.5846    0.0095   -6.3103 H   0  0  0  0  0  0  0  0  0  0  0  0
    5.2173    0.7045   -5.9822 H   0  0  0  0  0  0  0  0  0  0  0  0
    3.8713    1.9155   -3.7482 S   0  0  0  0  0  0  0  0  0  0  0  0
    3.8079    2.9611   -2.7230 O   0  0  0  0  0  0  0  0  0  0  0  0
    3.3023    0.5282   -3.1122 O   0  0  0  0  0  0  0  0  0  0  0  0
    3.2500    2.1395   -5.0533 O   0  0  0  0  0  0  0  0  0  0  0  0
    9.6585    0.2015   -4.5420 C   0  0  0  0  0  0  0  0  0  0  0  0
   10.3516    0.8342   -3.9800 H   0  0  0  0  0  0  0  0  0  0  0  0
    9.7991   -0.8284   -4.1899 H   0  0  0  0  0  0  0  0  0  0  0  0
    9.9496    0.2273   -5.5963 H   0  0  0  0  0  0  0  0  0  0  0  0
   -2.7824   -0.4172   -2.8487 O   0  0  0  0  0  0  0  0  0  0  0  0
   -4.1270   -0.1919   -2.4535 C   0  0  0  0  0  0  0  0  0  0  0  0
   -4.7299   -0.9063   -3.0156 H   0  0  0  0  0  0  0  0  0  0  0  0
   -4.4544    0.8270   -2.6986 H   0  0  0  0  0  0  0  0  0  0  0  0
   -4.2677   -0.3691   -1.3789 H   0  0  0  0  0  0  0  0  0  0  0  0
  1  6  2  0  0  0  0
  1  2  1  0  0  0  0
  2  3  2  0  0  0  0
  3  4  1  0  0  0  0
  4  9  1  0  0  0  0
  5 10  1  0  0  0  0
  5  4  2  0  0  0  0
  6  5  1  0  0  0  0
  7  1  1  0  0  0  0
 11 12  3  0  0  0  0
 13 19  1  0  0  0  0
 14 13  1  0  0  0  0
 14 20  1  0  0  0  0
 15 14  2  0  0  0  0
 16 17  2  0  0  0  0
 16 15  1  0  0  0  0
 17 18  1  0  0  0  0
 18 23  1  0  0  0  0
 18 13  2  0  0  0  0
 21 16  1  0  0  0  0
 22 17  1  0  0  0  0
 23 25  1  0  0  0  0
 23 24  2  0  0  0  0
 25  8  1  0  0  0  0
 26 23  2  0  0  0  0
 27 15  1  0  0  0  0
 27 29  1  0  0  0  0
 27 28  1  0  0  0  0
 30 27  1  0  0  0  0
 31 32  1  0  0  0  0
 31  6  1  0  0  0  0
 32 35  1  0  0  0  0
 33 32  1  0  0  0  0
 34 32  1  0  0  0  0
M  RAD  2   2   2   3   2
M  END
