Coordinates from ORCA-job p-CH3O-Ph-N2-OTs-B3LYP-6-31G_dp-scan-d09-49-n400
 OpenBabel02051708043D

 35 35  0  0  0  0  0  0  0  0999 V2000
   -0.6548   -0.7309   -2.1964 C   0  0  0  0  0  0  0  0  0  0  0  0
    0.6990   -0.6014   -2.4767 C   0  0  0  0  0  0  0  0  0  0  0  0
    1.2300    0.6685   -2.7152 C   0  0  0  0  0  0  0  0  0  0  0  0
    0.4224    1.7996   -2.6859 C   0  0  0  0  0  0  0  0  0  0  0  0
   -0.9406    1.6712   -2.4051 C   0  0  0  0  0  0  0  0  0  0  0  0
   -1.4829    0.4030   -2.1587 C   0  0  0  0  0  0  0  0  0  0  0  0
   -1.0982   -1.7023   -2.0038 H   0  0  0  0  0  0  0  0  0  0  0  0
    1.3484   -1.4690   -2.5144 H   0  0  0  0  0  0  0  0  0  0  0  0
    0.8588    2.7723   -2.8836 H   0  0  0  0  0  0  0  0  0  0  0  0
   -1.5608    2.5596   -2.3849 H   0  0  0  0  0  0  0  0  0  0  0  0
    4.5553    2.3127   -0.1169 N   0  0  0  0  0  0  0  0  0  0  0  0
    5.0270    1.3389   -0.3429 N   0  0  0  0  0  0  0  0  0  0  0  0
    5.6445   -0.1649   -3.9035 C   0  0  0  0  0  0  0  0  0  0  0  0
    7.0019    0.0124   -3.6559 C   0  0  0  0  0  0  0  0  0  0  0  0
    7.5897    1.2873   -3.7076 C   0  0  0  0  0  0  0  0  0  0  0  0
    6.7790    2.3870   -4.0194 C   0  0  0  0  0  0  0  0  0  0  0  0
    5.4156    2.2312   -4.2687 C   0  0  0  0  0  0  0  0  0  0  0  0
    4.8623    0.9534   -4.2034 C   0  0  0  0  0  0  0  0  0  0  0  0
    5.1933   -1.1510   -3.8762 H   0  0  0  0  0  0  0  0  0  0  0  0
    7.6179   -0.8518   -3.4209 H   0  0  0  0  0  0  0  0  0  0  0  0
    7.2199    3.3788   -4.0718 H   0  0  0  0  0  0  0  0  0  0  0  0
    4.7891    3.0800   -4.5203 H   0  0  0  0  0  0  0  0  0  0  0  0
    3.1232    0.7405   -4.5197 S   0  0  0  0  0  0  0  0  0  0  0  0
    2.6140    0.8095   -2.9263 O   0  0  0  0  0  0  0  0  0  0  0  0
    2.8693   -0.6077   -5.0240 O   0  0  0  0  0  0  0  0  0  0  0  0
    2.5992    1.9094   -5.2237 O   0  0  0  0  0  0  0  0  0  0  0  0
    9.0659    1.4574   -3.4400 C   0  0  0  0  0  0  0  0  0  0  0  0
    9.6660    0.9114   -4.1770 H   0  0  0  0  0  0  0  0  0  0  0  0
    9.3628    2.5086   -3.4782 H   0  0  0  0  0  0  0  0  0  0  0  0
    9.3360    1.0653   -2.4529 H   0  0  0  0  0  0  0  0  0  0  0  0
   -2.7952    0.1637   -1.8726 O   0  0  0  0  0  0  0  0  0  0  0  0
   -3.6873    1.2664   -1.8344 C   0  0  0  0  0  0  0  0  0  0  0  0
   -4.6687    0.8521   -1.5978 H   0  0  0  0  0  0  0  0  0  0  0  0
   -3.7369    1.7809   -2.8032 H   0  0  0  0  0  0  0  0  0  0  0  0
   -3.4049    1.9898   -1.0582 H   0  0  0  0  0  0  0  0  0  0  0  0
  1  6  1  0  0  0  0
  1  7  1  0  0  0  0
  2  1  2  0  0  0  0
  3  4  2  0  0  0  0
  3  2  1  0  0  0  0
  4  5  1  0  0  0  0
  5 10  1  0  0  0  0
  5  6  2  0  0  0  0
  6 31  1  0  0  0  0
  8  2  1  0  0  0  0
  9  4  1  0  0  0  0
 12 11  3  0  0  0  0
 13 19  1  0  0  0  0
 13 14  2  0  0  0  0
 14 20  1  0  0  0  0
 15 14  1  0  0  0  0
 15 27  1  0  0  0  0
 16 15  2  0  0  0  0
 17 18  2  0  0  0  0
 17 16  1  0  0  0  0
 18 13  1  0  0  0  0
 21 16  1  0  0  0  0
 22 17  1  0  0  0  0
 23 18  1  0  0  0  0
 23 24  1  0  0  0  0
 24  3  1  0  0  0  0
 25 23  2  0  0  0  0
 26 23  2  0  0  0  0
 27 30  1  0  0  0  0
 28 27  1  0  0  0  0
 29 27  1  0  0  0  0
 31 32  1  0  0  0  0
 32 33  1  0  0  0  0
 32 35  1  0  0  0  0
 34 32  1  0  0  0  0
M  END
