Coordinates from ORCA-job p-CH3O-Ph-N2-OTs-B3LYP-6-31G_dp-scan-d09-49-n400
 OpenBabel02051708043D

 35 36  0  0  1  0  0  0  0  0999 V2000
    0.3302    0.3697   -3.2611 C   0  0  0  0  0  0  0  0  0  0  0  0
    0.9013    1.6059   -3.8438 C   0  0  1  0  0  0  0  0  0  0  0  0
    0.2253    2.9218   -3.2888 C   0  0  1  0  0  0  0  0  0  0  0  0
   -0.2182    2.7951   -1.8649 C   0  0  0  0  0  0  0  0  0  0  0  0
   -0.4273    1.6003   -1.2836 C   0  0  0  0  0  0  0  0  0  0  0  0
   -0.2353    0.3610   -2.0317 C   0  0  0  0  0  0  0  0  0  0  0  0
    0.4540   -0.5595   -3.8066 H   0  0  0  0  0  0  0  0  0  0  0  0
    0.8263    1.6346   -4.9347 H   0  0  0  0  0  0  0  0  0  0  0  0
   -0.3928    3.7328   -1.3442 H   0  0  0  0  0  0  0  0  0  0  0  0
   -0.7574    1.5633   -0.2523 H   0  0  0  0  0  0  0  0  0  0  0  0
    0.1441    3.6879   -3.8099 N   0  0  0  0  0  0  0  0  0  0  0  0
    0.0325    4.6601   -4.4693 N   0  0  0  0  0  0  0  0  0  0  0  0
    5.1775    0.3764   -4.8510 C   0  0  0  0  0  0  0  0  0  0  0  0
    6.3450   -0.3141   -4.5370 C   0  0  0  0  0  0  0  0  0  0  0  0
    7.1951    0.1254   -3.5103 C   0  0  0  0  0  0  0  0  0  0  0  0
    6.8515    1.2896   -2.8079 C   0  0  0  0  0  0  0  0  0  0  0  0
    5.6885    1.9965   -3.1075 C   0  0  0  0  0  0  0  0  0  0  0  0
    4.8588    1.5260   -4.1256 C   0  0  0  0  0  0  0  0  0  0  0  0
    4.5289    0.0456   -5.6554 H   0  0  0  0  0  0  0  0  0  0  0  0
    6.6039   -1.2061   -5.1016 H   0  0  0  0  0  0  0  0  0  0  0  0
    7.5066    1.6520   -2.0196 H   0  0  0  0  0  0  0  0  0  0  0  0
    5.4315    2.9064   -2.5761 H   0  0  0  0  0  0  0  0  0  0  0  0
    3.3715    2.4232   -4.5220 S   0  0  0  0  0  0  0  0  0  0  0  0
    2.3375    1.6299   -3.4994 O   0  0  0  0  0  0  0  0  0  0  0  0
    2.9625    2.1269   -5.8975 O   0  0  0  0  0  0  0  0  0  0  0  0
    3.5039    3.8058   -4.0679 O   0  0  0  0  0  0  0  0  0  0  0  0
    8.4423   -0.6498   -3.1601 C   0  0  0  0  0  0  0  0  0  0  0  0
    8.2153   -1.4546   -2.4494 H   0  0  0  0  0  0  0  0  0  0  0  0
    8.8863   -1.1139   -4.0459 H   0  0  0  0  0  0  0  0  0  0  0  0
    9.1969   -0.0076   -2.6965 H   0  0  0  0  0  0  0  0  0  0  0  0
   -0.6230   -0.8423   -1.5226 O   0  0  0  0  0  0  0  0  0  0  0  0
   -1.4604   -0.8849   -0.3727 C   0  0  0  0  0  0  0  0  0  0  0  0
   -1.7431   -1.9319   -0.2527 H   0  0  0  0  0  0  0  0  0  0  0  0
   -2.3671   -0.2818   -0.5026 H   0  0  0  0  0  0  0  0  0  0  0  0
   -0.9321   -0.5580    0.5319 H   0  0  0  0  0  0  0  0  0  0  0  0
  1  6  2  0  0  0  0
  2  8  1  6  0  0  0
  2 24  1  0  0  0  0
  2  3  1  0  0  0  0
  2  1  1  0  0  0  0
  3 11  1  1  0  0  0
  3  4  1  0  0  0  0
  4  9  1  0  0  0  0
  4  5  2  0  0  0  0
  5 10  1  0  0  0  0
  6 31  1  0  0  0  0
  6  5  1  0  0  0  0
  7  1  1  0  0  0  0
 12 11  1  0  0  0  0
 13 14  2  0  0  0  0
 13 18  1  0  0  0  0
 14 15  1  0  0  0  0
 15 27  1  0  0  0  0
 15 16  2  0  0  0  0
 16 21  1  0  0  0  0
 17 16  1  0  0  0  0
 17 22  1  0  0  0  0
 18 17  2  0  0  0  0
 19 13  1  0  0  0  0
 20 14  1  0  0  0  0
 23 18  1  0  0  0  0
 23 26  2  0  0  0  0
 23 24  1  0  0  0  0
 25 23  2  0  0  0  0
 27 30  1  0  0  0  0
 27 28  1  0  0  0  0
 29 27  1  0  0  0  0
 31 32  1  0  0  0  0
 32 33  1  0  0  0  0
 32 35  1  0  0  0  0
 34 32  1  0  0  0  0
M  RAD  3   3   2  11   2  12   3
M  END
