Coordinates from ORCA-job p-CH3O-Ph-N2-OTs-B3LYP-6-31G_dp-scan-d09-49-n400
 OpenBabel02051708043D

 35 35  0  0  0  0  0  0  0  0999 V2000
   -0.6651   -0.7324   -2.1923 C   0  0  0  0  0  0  0  0  0  0  0  0
    0.6889   -0.5926   -2.4662 C   0  0  0  0  0  0  0  0  0  0  0  0
    1.2097    0.6801   -2.7119 C   0  0  0  0  0  0  0  0  0  0  0  0
    0.3916    1.8039   -2.6961 C   0  0  0  0  0  0  0  0  0  0  0  0
   -0.9717    1.6652   -2.4218 C   0  0  0  0  0  0  0  0  0  0  0  0
   -1.5038    0.3941   -2.1682 C   0  0  0  0  0  0  0  0  0  0  0  0
   -1.1006   -1.7063   -1.9943 H   0  0  0  0  0  0  0  0  0  0  0  0
    1.3464   -1.4545   -2.4932 H   0  0  0  0  0  0  0  0  0  0  0  0
    0.8197    2.7792   -2.8992 H   0  0  0  0  0  0  0  0  0  0  0  0
   -1.5999    2.5481   -2.4122 H   0  0  0  0  0  0  0  0  0  0  0  0
    4.8653    2.3610   -0.1133 N   0  0  0  0  0  0  0  0  0  0  0  0
    5.2762    1.3634   -0.3536 N   0  0  0  0  0  0  0  0  0  0  0  0
    5.6242   -0.1584   -3.8930 C   0  0  0  0  0  0  0  0  0  0  0  0
    6.9835    0.0089   -3.6485 C   0  0  0  0  0  0  0  0  0  0  0  0
    7.5800    1.2798   -3.6986 C   0  0  0  0  0  0  0  0  0  0  0  0
    6.7758    2.3860   -4.0040 C   0  0  0  0  0  0  0  0  0  0  0  0
    5.4106    2.2403   -4.2499 C   0  0  0  0  0  0  0  0  0  0  0  0
    4.8488    0.9660   -4.1877 C   0  0  0  0  0  0  0  0  0  0  0  0
    5.1664   -1.1415   -3.8677 H   0  0  0  0  0  0  0  0  0  0  0  0
    7.5941   -0.8603   -3.4178 H   0  0  0  0  0  0  0  0  0  0  0  0
    7.2233    3.3750   -4.0546 H   0  0  0  0  0  0  0  0  0  0  0  0
    4.7894    3.0941   -4.4974 H   0  0  0  0  0  0  0  0  0  0  0  0
    3.1089    0.7638   -4.5082 S   0  0  0  0  0  0  0  0  0  0  0  0
    2.5935    0.8318   -2.9169 O   0  0  0  0  0  0  0  0  0  0  0  0
    2.8494   -0.5816   -5.0168 O   0  0  0  0  0  0  0  0  0  0  0  0
    2.5941    1.9375   -5.2112 O   0  0  0  0  0  0  0  0  0  0  0  0
    9.0586    1.4387   -3.4374 C   0  0  0  0  0  0  0  0  0  0  0  0
    9.6514    0.9021   -4.1873 H   0  0  0  0  0  0  0  0  0  0  0  0
    9.3602    2.4890   -3.4605 H   0  0  0  0  0  0  0  0  0  0  0  0
    9.3331    1.0292   -2.4587 H   0  0  0  0  0  0  0  0  0  0  0  0
   -2.8154    0.1451   -1.8875 O   0  0  0  0  0  0  0  0  0  0  0  0
   -3.7175    1.2400   -1.8621 C   0  0  0  0  0  0  0  0  0  0  0  0
   -4.6964    0.8187   -1.6275 H   0  0  0  0  0  0  0  0  0  0  0  0
   -3.7668    1.7469   -2.8349 H   0  0  0  0  0  0  0  0  0  0  0  0
   -3.4456    1.9716   -1.0898 H   0  0  0  0  0  0  0  0  0  0  0  0
  1  6  1  0  0  0  0
  1  7  1  0  0  0  0
  2  1  2  0  0  0  0
  3  4  2  0  0  0  0
  3  2  1  0  0  0  0
  4  5  1  0  0  0  0
  5 10  1  0  0  0  0
  5  6  2  0  0  0  0
  6 31  1  0  0  0  0
  8  2  1  0  0  0  0
  9  4  1  0  0  0  0
 12 11  3  0  0  0  0
 13 19  1  0  0  0  0
 13 14  2  0  0  0  0
 14 20  1  0  0  0  0
 15 14  1  0  0  0  0
 15 27  1  0  0  0  0
 16 15  2  0  0  0  0
 17 18  2  0  0  0  0
 17 16  1  0  0  0  0
 18 13  1  0  0  0  0
 21 16  1  0  0  0  0
 22 17  1  0  0  0  0
 23 18  1  0  0  0  0
 23 24  1  0  0  0  0
 24  3  1  0  0  0  0
 25 23  2  0  0  0  0
 26 23  2  0  0  0  0
 27 30  1  0  0  0  0
 28 27  1  0  0  0  0
 29 27  1  0  0  0  0
 31 32  1  0  0  0  0
 32 33  1  0  0  0  0
 32 35  1  0  0  0  0
 34 32  1  0  0  0  0
M  END
