Coordinates from ORCA-job p-CH3O-Ph-N2-OTs-B3LYP-6-31G_dp-scan-d09-49-n400
 OpenBabel02051708043D

 35 35  0  0  0  0  0  0  0  0999 V2000
   -0.6481   -0.7299   -2.2095 C   0  0  0  0  0  0  0  0  0  0  0  0
    0.7068   -0.5978   -2.4834 C   0  0  0  0  0  0  0  0  0  0  0  0
    1.2397    0.6748   -2.7030 C   0  0  0  0  0  0  0  0  0  0  0  0
    0.4326    1.8060   -2.6611 C   0  0  0  0  0  0  0  0  0  0  0  0
   -0.9313    1.6751   -2.3862 C   0  0  0  0  0  0  0  0  0  0  0  0
   -1.4754    0.4041   -2.1590 C   0  0  0  0  0  0  0  0  0  0  0  0
   -1.0930   -1.7034   -2.0317 H   0  0  0  0  0  0  0  0  0  0  0  0
    1.3553   -1.4655   -2.5306 H   0  0  0  0  0  0  0  0  0  0  0  0
    0.8702    2.7812   -2.8437 H   0  0  0  0  0  0  0  0  0  0  0  0
   -1.5509    2.5637   -2.3558 H   0  0  0  0  0  0  0  0  0  0  0  0
    4.3165    2.2923   -0.1069 N   0  0  0  0  0  0  0  0  0  0  0  0
    4.8344    1.3373   -0.3106 N   0  0  0  0  0  0  0  0  0  0  0  0
    5.6577   -0.1624   -3.8896 C   0  0  0  0  0  0  0  0  0  0  0  0
    7.0184    0.0122   -3.6585 C   0  0  0  0  0  0  0  0  0  0  0  0
    7.6100    1.2846   -3.7275 C   0  0  0  0  0  0  0  0  0  0  0  0
    6.7995    2.3845   -4.0388 C   0  0  0  0  0  0  0  0  0  0  0  0
    5.4328    2.2315   -4.2716 C   0  0  0  0  0  0  0  0  0  0  0  0
    4.8760    0.9561   -4.1901 C   0  0  0  0  0  0  0  0  0  0  0  0
    5.2039   -1.1469   -3.8505 H   0  0  0  0  0  0  0  0  0  0  0  0
    7.6341   -0.8524   -3.4243 H   0  0  0  0  0  0  0  0  0  0  0  0
    7.2432    3.3742   -4.1050 H   0  0  0  0  0  0  0  0  0  0  0  0
    4.8067    3.0802   -4.5243 H   0  0  0  0  0  0  0  0  0  0  0  0
    3.1359    0.7443   -4.5024 S   0  0  0  0  0  0  0  0  0  0  0  0
    2.6237    0.8194   -2.9096 O   0  0  0  0  0  0  0  0  0  0  0  0
    2.8810   -0.6057   -5.0017 O   0  0  0  0  0  0  0  0  0  0  0  0
    2.6130    1.9111   -5.2107 O   0  0  0  0  0  0  0  0  0  0  0  0
    9.0893    1.4517   -3.4760 C   0  0  0  0  0  0  0  0  0  0  0  0
    9.6801    0.8663   -4.1894 H   0  0  0  0  0  0  0  0  0  0  0  0
    9.3962    2.4972   -3.5634 H   0  0  0  0  0  0  0  0  0  0  0  0
    9.3605    1.1033   -2.4728 H   0  0  0  0  0  0  0  0  0  0  0  0
   -2.7888    0.1621   -1.8806 O   0  0  0  0  0  0  0  0  0  0  0  0
   -3.6803    1.2648   -1.8311 C   0  0  0  0  0  0  0  0  0  0  0  0
   -4.6627    0.8482   -1.6027 H   0  0  0  0  0  0  0  0  0  0  0  0
   -3.7267    1.7916   -2.7934 H   0  0  0  0  0  0  0  0  0  0  0  0
   -3.3999    1.9781   -1.0448 H   0  0  0  0  0  0  0  0  0  0  0  0
  1  6  1  0  0  0  0
  1  7  1  0  0  0  0
  2  1  2  0  0  0  0
  3  4  2  0  0  0  0
  3  2  1  0  0  0  0
  4  5  1  0  0  0  0
  5 10  1  0  0  0  0
  5  6  2  0  0  0  0
  6 31  1  0  0  0  0
  8  2  1  0  0  0  0
  9  4  1  0  0  0  0
 12 11  3  0  0  0  0
 13 19  1  0  0  0  0
 13 14  2  0  0  0  0
 14 20  1  0  0  0  0
 15 14  1  0  0  0  0
 15 27  1  0  0  0  0
 16 15  2  0  0  0  0
 17 18  2  0  0  0  0
 17 16  1  0  0  0  0
 18 13  1  0  0  0  0
 21 16  1  0  0  0  0
 22 17  1  0  0  0  0
 23 18  1  0  0  0  0
 23 24  1  0  0  0  0
 24  3  1  0  0  0  0
 25 23  2  0  0  0  0
 26 23  2  0  0  0  0
 27 30  1  0  0  0  0
 28 27  1  0  0  0  0
 29 27  1  0  0  0  0
 31 32  1  0  0  0  0
 32 33  1  0  0  0  0
 32 35  1  0  0  0  0
 34 32  1  0  0  0  0
M  END
