Coordinates from ORCA-job p-CH3O-Ph-N2-OTs-B3LYP-6-31G_dp-scan-d09-49-n400
 OpenBabel02051708043D

 35 36  0  0  1  0  0  0  0  0999 V2000
   -0.0272    0.8523   -3.4079 C   0  0  0  0  0  0  0  0  0  0  0  0
    0.9473    1.9632   -3.5005 C   0  0  1  0  0  0  0  0  0  0  0  0
    0.8976    2.9143   -2.3041 C   0  0  0  0  0  0  0  0  0  0  0  0
    0.2819    2.4399   -1.0633 C   0  0  0  0  0  0  0  0  0  0  0  0
   -0.4338    1.2959   -1.0300 C   0  0  0  0  0  0  0  0  0  0  0  0
   -0.6297    0.5122   -2.2434 C   0  0  0  0  0  0  0  0  0  0  0  0
   -0.1965    0.2579   -4.2986 H   0  0  0  0  0  0  0  0  0  0  0  0
    0.8460    2.5357   -4.4266 H   0  0  0  0  0  0  0  0  0  0  0  0
    0.4206    3.0501   -0.1755 H   0  0  0  0  0  0  0  0  0  0  0  0
   -0.8698    0.9698   -0.0942 H   0  0  0  0  0  0  0  0  0  0  0  0
    1.3888    3.9073   -2.3817 N   0  0  0  0  0  0  0  0  0  0  0  0
    1.9072    4.9366   -2.4712 N   0  0  0  0  0  0  0  0  0  0  0  0
    5.1772   -0.3104   -4.3137 C   0  0  0  0  0  0  0  0  0  0  0  0
    6.4769   -0.5616   -3.8791 C   0  0  0  0  0  0  0  0  0  0  0  0
    7.3487    0.4876   -3.5513 C   0  0  0  0  0  0  0  0  0  0  0  0
    6.8893    1.8072   -3.6806 C   0  0  0  0  0  0  0  0  0  0  0  0
    5.5936    2.0801   -4.1132 C   0  0  0  0  0  0  0  0  0  0  0  0
    4.7475    1.0132   -4.4207 C   0  0  0  0  0  0  0  0  0  0  0  0
    4.5064   -1.1194   -4.5814 H   0  0  0  0  0  0  0  0  0  0  0  0
    6.8227   -1.5892   -3.7987 H   0  0  0  0  0  0  0  0  0  0  0  0
    7.5570    2.6317   -3.4446 H   0  0  0  0  0  0  0  0  0  0  0  0
    5.2435    3.1005   -4.2277 H   0  0  0  0  0  0  0  0  0  0  0  0
    3.0898    1.3491   -4.9801 S   0  0  0  0  0  0  0  0  0  0  0  0
    2.3610    1.4231   -3.5111 O   0  0  0  0  0  0  0  0  0  0  0  0
    2.5745    0.1933   -5.7155 O   0  0  0  0  0  0  0  0  0  0  0  0
    3.0297    2.6817   -5.5892 O   0  0  0  0  0  0  0  0  0  0  0  0
    8.7445    0.2019   -3.0517 C   0  0  0  0  0  0  0  0  0  0  0  0
    8.7504    0.0762   -1.9614 H   0  0  0  0  0  0  0  0  0  0  0  0
    9.1450   -0.7182   -3.4876 H   0  0  0  0  0  0  0  0  0  0  0  0
    9.4313    1.0199   -3.2898 H   0  0  0  0  0  0  0  0  0  0  0  0
   -1.4388   -0.5867   -2.2567 O   0  0  0  0  0  0  0  0  0  0  0  0
   -2.2606   -0.8726   -1.1331 C   0  0  0  0  0  0  0  0  0  0  0  0
   -2.8717   -1.7283   -1.4257 H   0  0  0  0  0  0  0  0  0  0  0  0
   -2.9201   -0.0328   -0.8804 H   0  0  0  0  0  0  0  0  0  0  0  0
   -1.6702   -1.1498   -0.2500 H   0  0  0  0  0  0  0  0  0  0  0  0
  1  6  1  0  0  0  0
  2  8  1  6  0  0  0
  2  1  1  0  0  0  0
  2  3  1  0  0  0  0
  3  4  2  0  0  0  0
  4  5  1  0  0  0  0
  4  9  1  0  0  0  0
  5 10  1  0  0  0  0
  6  5  2  0  0  0  0
  7  1  1  0  0  0  0
 11  3  1  0  0  0  0
 12 11  1  0  0  0  0
 13 14  1  0  0  0  0
 14 20  1  0  0  0  0
 14 15  2  0  0  0  0
 15 27  1  0  0  0  0
 16 15  1  0  0  0  0
 16 21  1  0  0  0  0
 17 16  2  0  0  0  0
 18 13  2  0  0  0  0
 18 17  1  0  0  0  0
 19 13  1  0  0  0  0
 22 17  1  0  0  0  0
 23 18  1  0  0  0  0
 23 24  1  0  0  0  0
 24  2  1  0  0  0  0
 25 23  2  0  0  0  0
 26 23  2  0  0  0  0
 27 28  1  0  0  0  0
 29 27  1  0  0  0  0
 30 27  1  0  0  0  0
 31  6  1  0  0  0  0
 31 32  1  0  0  0  0
 32 34  1  0  0  0  0
 32 35  1  0  0  0  0
 33 32  1  0  0  0  0
M  RAD  3   1   2  11   2  12   3
M  END
