Coordinates from ORCA-job p-CH3O-Ph-N2-OTs-B3LYP-6-31G_dp-scan-d09-49-n400
 OpenBabel02051708043D

 35 35  0  0  0  0  0  0  0  0999 V2000
   -0.5437    0.0341   -2.7921 C   0  0  0  0  0  0  0  0  0  0  0  0
    0.5580    0.8880   -2.8740 C   0  0  0  0  0  0  0  0  0  0  0  0
    0.4255    1.9996   -2.0904 C   0  0  0  0  0  0  0  0  0  0  0  0
   -0.5837    2.4008   -1.2561 C   0  0  0  0  0  0  0  0  0  0  0  0
   -1.6651    1.5104   -1.1969 C   0  0  0  0  0  0  0  0  0  0  0  0
   -1.6434    0.3305   -1.9624 C   0  0  0  0  0  0  0  0  0  0  0  0
   -0.5630   -0.8803   -3.3754 H   0  0  0  0  0  0  0  0  0  0  0  0
    1.4205    0.6918   -3.5191 H   0  0  0  0  0  0  0  0  0  0  0  0
   -0.5620    3.3218   -0.6878 H   0  0  0  0  0  0  0  0  0  0  0  0
   -2.5037    1.7563   -0.5569 H   0  0  0  0  0  0  0  0  0  0  0  0
    1.7966    3.2136   -2.1502 N   0  0  0  0  0  0  0  0  0  0  0  0
    2.0713    4.2792   -1.9723 N   0  0  0  0  0  0  0  0  0  0  0  0
    5.7943   -0.0175   -4.2407 C   0  0  0  0  0  0  0  0  0  0  0  0
    7.1375   -0.3932   -4.2626 C   0  0  0  0  0  0  0  0  0  0  0  0
    8.1594    0.5623   -4.1801 C   0  0  0  0  0  0  0  0  0  0  0  0
    7.8000    1.9157   -4.0861 C   0  0  0  0  0  0  0  0  0  0  0  0
    6.4628    2.3065   -4.0644 C   0  0  0  0  0  0  0  0  0  0  0  0
    5.4636    1.3338   -4.1387 C   0  0  0  0  0  0  0  0  0  0  0  0
    5.0033   -0.7550   -4.3244 H   0  0  0  0  0  0  0  0  0  0  0  0
    7.3965   -1.4458   -4.3538 H   0  0  0  0  0  0  0  0  0  0  0  0
    8.5788    2.6736   -4.0375 H   0  0  0  0  0  0  0  0  0  0  0  0
    6.1860    3.3545   -4.0133 H   0  0  0  0  0  0  0  0  0  0  0  0
    3.7394    1.8343   -4.0827 S   0  0  0  0  0  0  0  0  0  0  0  0
    3.4186    1.8318   -2.5834 O   0  0  0  0  0  0  0  0  0  0  0  0
    2.9656    0.7668   -4.7756 O   0  0  0  0  0  0  0  0  0  0  0  0
    3.6442    3.1897   -4.6594 O   0  0  0  0  0  0  0  0  0  0  0  0
    9.6126    0.1485   -4.1768 C   0  0  0  0  0  0  0  0  0  0  0  0
   10.0142    0.1212   -3.1557 H   0  0  0  0  0  0  0  0  0  0  0  0
    9.7460   -0.8488   -4.6065 H   0  0  0  0  0  0  0  0  0  0  0  0
   10.2310    0.8490   -4.7477 H   0  0  0  0  0  0  0  0  0  0  0  0
   -2.6377   -0.5872   -1.9724 O   0  0  0  0  0  0  0  0  0  0  0  0
   -3.7873   -0.3664   -1.1618 C   0  0  0  0  0  0  0  0  0  0  0  0
   -4.4392   -1.2244   -1.3310 H   0  0  0  0  0  0  0  0  0  0  0  0
   -4.3131    0.5514   -1.4539 H   0  0  0  0  0  0  0  0  0  0  0  0
   -3.5233   -0.3149   -0.0981 H   0  0  0  0  0  0  0  0  0  0  0  0
  1  6  1  0  0  0  0
  2  1  2  0  0  0  0
  2  3  1  0  0  0  0
  3  4  2  0  0  0  0
  4  5  1  0  0  0  0
  4  9  1  0  0  0  0
  5 10  1  0  0  0  0
  6  5  2  0  0  0  0
  7  1  1  0  0  0  0
  8  2  1  0  0  0  0
 11  3  1  0  0  0  0
 11 12  2  0  0  0  0
 13 18  1  0  0  0  0
 14 13  2  0  0  0  0
 14 15  1  0  0  0  0
 15 27  1  0  0  0  0
 15 16  2  0  0  0  0
 16 17  1  0  0  0  0
 16 21  1  0  0  0  0
 17 22  1  0  0  0  0
 18 23  1  0  0  0  0
 18 17  2  0  0  0  0
 19 13  1  0  0  0  0
 20 14  1  0  0  0  0
 23 24  1  0  0  0  0
 25 23  2  0  0  0  0
 26 23  2  0  0  0  0
 27 28  1  0  0  0  0
 29 27  1  0  0  0  0
 30 27  1  0  0  0  0
 31  6  1  0  0  0  0
 31 32  1  0  0  0  0
 32 35  1  0  0  0  0
 33 32  1  0  0  0  0
 34 32  1  0  0  0  0
M  RAD  2  12   2  24   2
M  END
