Coordinates from ORCA-job p-CH3O-Ph-N2-OTs-B3LYP-6-31G_dp-scan-d09-49-n400
 OpenBabel02051708043D

 35 35  0  0  0  0  0  0  0  0999 V2000
   -0.4641   -0.0007   -2.5665 C   0  0  0  0  0  0  0  0  0  0  0  0
    0.4079    0.9295   -3.1116 C   0  0  0  0  0  0  0  0  0  0  0  0
    0.1315    2.2539   -2.7865 C   0  0  0  0  0  0  0  0  0  0  0  0
   -0.9035    2.7154   -1.9888 C   0  0  0  0  0  0  0  0  0  0  0  0
   -1.7530    1.7546   -1.4475 C   0  0  0  0  0  0  0  0  0  0  0  0
   -1.5339    0.3933   -1.7361 C   0  0  0  0  0  0  0  0  0  0  0  0
   -0.3266   -1.0581   -2.7650 H   0  0  0  0  0  0  0  0  0  0  0  0
    1.2548    0.6492   -3.7412 H   0  0  0  0  0  0  0  0  0  0  0  0
   -1.0426    3.7714   -1.7896 H   0  0  0  0  0  0  0  0  0  0  0  0
   -2.5712    2.0714   -0.8134 H   0  0  0  0  0  0  0  0  0  0  0  0
    1.0584    3.3812   -3.3964 N   0  0  0  0  0  0  0  0  0  0  0  0
    1.7879    4.0588   -3.9063 N   0  0  0  0  0  0  0  0  0  0  0  0
    5.9925    0.5013   -5.1117 C   0  0  0  0  0  0  0  0  0  0  0  0
    7.3490    0.1803   -5.1257 C   0  0  0  0  0  0  0  0  0  0  0  0
    8.1878    0.5280   -4.0568 C   0  0  0  0  0  0  0  0  0  0  0  0
    7.6286    1.2108   -2.9670 C   0  0  0  0  0  0  0  0  0  0  0  0
    6.2738    1.5394   -2.9405 C   0  0  0  0  0  0  0  0  0  0  0  0
    5.4594    1.1826   -4.0161 C   0  0  0  0  0  0  0  0  0  0  0  0
    5.3421    0.2190   -5.9329 H   0  0  0  0  0  0  0  0  0  0  0  0
    7.7643   -0.3508   -5.9796 H   0  0  0  0  0  0  0  0  0  0  0  0
    8.2630    1.4875   -2.1276 H   0  0  0  0  0  0  0  0  0  0  0  0
    5.8373    2.0558   -2.0919 H   0  0  0  0  0  0  0  0  0  0  0  0
    3.7263    1.6495   -4.0095 S   0  0  0  0  0  0  0  0  0  0  0  0
    3.3068    1.7508   -2.5832 O   0  0  0  0  0  0  0  0  0  0  0  0
    3.0043    0.5849   -4.7664 O   0  0  0  0  0  0  0  0  0  0  0  0
    3.6613    2.9920   -4.6999 O   0  0  0  0  0  0  0  0  0  0  0  0
    9.6502    0.1471   -4.0645 C   0  0  0  0  0  0  0  0  0  0  0  0
    9.8042   -0.8433   -3.6162 H   0  0  0  0  0  0  0  0  0  0  0  0
   10.0488    0.1061   -5.0830 H   0  0  0  0  0  0  0  0  0  0  0  0
   10.2534    0.8586   -3.4919 H   0  0  0  0  0  0  0  0  0  0  0  0
   -2.2982   -0.6124   -1.2644 O   0  0  0  0  0  0  0  0  0  0  0  0
   -3.3962   -0.3097   -0.4060 C   0  0  0  0  0  0  0  0  0  0  0  0
   -3.8473   -1.2695   -0.1544 H   0  0  0  0  0  0  0  0  0  0  0  0
   -4.1376    0.3189   -0.9141 H   0  0  0  0  0  0  0  0  0  0  0  0
   -3.0589    0.1851    0.5123 H   0  0  0  0  0  0  0  0  0  0  0  0
  1  6  2  0  0  0  0
  2  3  2  0  0  0  0
  2  1  1  0  0  0  0
  3  4  1  0  0  0  0
  4  9  1  0  0  0  0
  4  5  2  0  0  0  0
  5 10  1  0  0  0  0
  6  5  1  0  0  0  0
  6 31  1  0  0  0  0
  7  1  1  0  0  0  0
  8  2  1  0  0  0  0
 11  3  1  0  0  0  0
 12 11  1  0  0  0  0
 13 18  1  0  0  0  0
 14 13  2  0  0  0  0
 14 15  1  0  0  0  0
 15 16  2  0  0  0  0
 16 17  1  0  0  0  0
 16 21  1  0  0  0  0
 17 22  1  0  0  0  0
 18 23  1  0  0  0  0
 18 17  2  0  0  0  0
 19 13  1  0  0  0  0
 20 14  1  0  0  0  0
 23 24  1  0  0  0  0
 25 23  2  0  0  0  0
 26 23  2  0  0  0  0
 27 15  1  0  0  0  0
 27 28  1  0  0  0  0
 27 30  1  0  0  0  0
 29 27  1  0  0  0  0
 31 32  1  0  0  0  0
 32 33  1  0  0  0  0
 32 35  1  0  0  0  0
 34 32  1  0  0  0  0
M  RAD  3  11   2  12   3  24   2
M  END
