Coordinates from ORCA-job p-CH3O-Ph-N2-OTs-B3LYP-6-31G_dp-scan-d09-49-n400
 OpenBabel02051708043D

 35 34  0  0  0  0  0  0  0  0999 V2000
   -0.4906    0.0814   -2.8220 C   0  0  0  0  0  0  0  0  0  0  0  0
    0.5744    0.9872   -2.8912 C   0  0  0  0  0  0  0  0  0  0  0  0
    0.3668    2.0602   -2.0864 C   0  0  0  0  0  0  0  0  0  0  0  0
   -0.6395    2.4200   -1.2395 C   0  0  0  0  0  0  0  0  0  0  0  0
   -1.6789    1.4752   -1.1989 C   0  0  0  0  0  0  0  0  0  0  0  0
   -1.6022    0.3117   -1.9864 C   0  0  0  0  0  0  0  0  0  0  0  0
   -0.4651   -0.8224   -3.4218 H   0  0  0  0  0  0  0  0  0  0  0  0
    1.4528    0.8431   -3.5409 H   0  0  0  0  0  0  0  0  0  0  0  0
   -0.6551    3.3307   -0.6554 H   0  0  0  0  0  0  0  0  0  0  0  0
   -2.5269    1.6706   -0.5538 H   0  0  0  0  0  0  0  0  0  0  0  0
    1.7563    3.4027   -2.1310 N   0  0  0  0  0  0  0  0  0  0  0  0
    2.0193    4.4702   -1.9666 N   0  0  0  0  0  0  0  0  0  0  0  0
    5.7387    0.0171   -4.1337 C   0  0  0  0  0  0  0  0  0  0  0  0
    7.0648   -0.4127   -4.1678 C   0  0  0  0  0  0  0  0  0  0  0  0
    8.1247    0.5051   -4.1811 C   0  0  0  0  0  0  0  0  0  0  0  0
    7.8196    1.8742   -4.1717 C   0  0  0  0  0  0  0  0  0  0  0  0
    6.4988    2.3187   -4.1381 C   0  0  0  0  0  0  0  0  0  0  0  0
    5.4619    1.3846   -4.1159 C   0  0  0  0  0  0  0  0  0  0  0  0
    4.9190   -0.6931   -4.1444 H   0  0  0  0  0  0  0  0  0  0  0  0
    7.2809   -1.4787   -4.1927 H   0  0  0  0  0  0  0  0  0  0  0  0
    8.6277    2.6019   -4.1996 H   0  0  0  0  0  0  0  0  0  0  0  0
    6.2623    3.3777   -4.1524 H   0  0  0  0  0  0  0  0  0  0  0  0
    3.7601    1.9579   -4.0375 S   0  0  0  0  0  0  0  0  0  0  0  0
    3.4515    1.9899   -2.5453 O   0  0  0  0  0  0  0  0  0  0  0  0
    2.9383    0.9065   -4.7117 O   0  0  0  0  0  0  0  0  0  0  0  0
    3.7118    3.3005   -4.6494 O   0  0  0  0  0  0  0  0  0  0  0  0
    9.5599    0.0328   -4.1881 C   0  0  0  0  0  0  0  0  0  0  0  0
    9.9649   -0.0190   -3.1692 H   0  0  0  0  0  0  0  0  0  0  0  0
    9.6505   -0.9665   -4.6250 H   0  0  0  0  0  0  0  0  0  0  0  0
   10.2030    0.7115   -4.7576 H   0  0  0  0  0  0  0  0  0  0  0  0
   -2.5524   -0.6511   -2.0124 O   0  0  0  0  0  0  0  0  0  0  0  0
   -3.7059   -0.5027   -1.1907 C   0  0  0  0  0  0  0  0  0  0  0  0
   -4.3164   -1.3877   -1.3734 H   0  0  0  0  0  0  0  0  0  0  0  0
   -4.2776    0.3942   -1.4609 H   0  0  0  0  0  0  0  0  0  0  0  0
   -3.4370   -0.4599   -0.1277 H   0  0  0  0  0  0  0  0  0  0  0  0
  1  6  1  0  0  0  0
  2  1  2  0  0  0  0
  2  3  1  0  0  0  0
  3  4  2  0  0  0  0
  4  5  1  0  0  0  0
  4  9  1  0  0  0  0
  5 10  1  0  0  0  0
  6  5  2  0  0  0  0
  7  1  1  0  0  0  0
  8  2  1  0  0  0  0
 11 12  3  0  0  0  0
 13 18  1  0  0  0  0
 14 13  2  0  0  0  0
 15 16  2  0  0  0  0
 15 14  1  0  0  0  0
 16 17  1  0  0  0  0
 17 18  2  0  0  0  0
 18 23  1  0  0  0  0
 19 13  1  0  0  0  0
 20 14  1  0  0  0  0
 21 16  1  0  0  0  0
 22 17  1  0  0  0  0
 23 24  1  0  0  0  0
 25 23  2  0  0  0  0
 26 23  2  0  0  0  0
 27 15  1  0  0  0  0
 27 28  1  0  0  0  0
 29 27  1  0  0  0  0
 30 27  1  0  0  0  0
 31  6  1  0  0  0  0
 31 32  1  0  0  0  0
 32 35  1  0  0  0  0
 33 32  1  0  0  0  0
 34 32  1  0  0  0  0
M  RAD  2   3   2  24   2
M  END
