Coordinates from ORCA-job p-CH3O-Ph-N2-OTs-B3LYP-6-31G_dp-scan-d09-49-n400
 OpenBabel02051708043D

 35 35  0  0  0  0  0  0  0  0999 V2000
   -0.6312   -0.7204   -2.1830 C   0  0  0  0  0  0  0  0  0  0  0  0
    0.7224   -0.5944   -2.4662 C   0  0  0  0  0  0  0  0  0  0  0  0
    1.2566    0.6742   -2.7047 C   0  0  0  0  0  0  0  0  0  0  0  0
    0.4520    1.8075   -2.6722 C   0  0  0  0  0  0  0  0  0  0  0  0
   -0.9106    1.6828   -2.3881 C   0  0  0  0  0  0  0  0  0  0  0  0
   -1.4560    0.4158   -2.1420 C   0  0  0  0  0  0  0  0  0  0  0  0
   -1.0769   -1.6908   -1.9904 H   0  0  0  0  0  0  0  0  0  0  0  0
    1.3691   -1.4639   -2.5061 H   0  0  0  0  0  0  0  0  0  0  0  0
    0.8905    2.7795   -2.8692 H   0  0  0  0  0  0  0  0  0  0  0  0
   -1.5282    2.5729   -2.3652 H   0  0  0  0  0  0  0  0  0  0  0  0
    4.0783    2.2030   -0.1563 N   0  0  0  0  0  0  0  0  0  0  0  0
    4.6483    1.2712   -0.3258 N   0  0  0  0  0  0  0  0  0  0  0  0
    5.6758   -0.1689   -3.9188 C   0  0  0  0  0  0  0  0  0  0  0  0
    7.0346    0.0140   -3.6820 C   0  0  0  0  0  0  0  0  0  0  0  0
    7.6155    1.2921   -3.7312 C   0  0  0  0  0  0  0  0  0  0  0  0
    6.7967    2.3893   -4.0309 C   0  0  0  0  0  0  0  0  0  0  0  0
    5.4322    2.2279   -4.2698 C   0  0  0  0  0  0  0  0  0  0  0  0
    4.8857    0.9471   -4.2062 C   0  0  0  0  0  0  0  0  0  0  0  0
    5.2298   -1.1574   -3.8940 H   0  0  0  0  0  0  0  0  0  0  0  0
    7.6570   -0.8485   -3.4582 H   0  0  0  0  0  0  0  0  0  0  0  0
    7.2324    3.3835   -4.0826 H   0  0  0  0  0  0  0  0  0  0  0  0
    4.8000    3.0748   -4.5133 H   0  0  0  0  0  0  0  0  0  0  0  0
    3.1461    0.7268   -4.5149 S   0  0  0  0  0  0  0  0  0  0  0  0
    2.6397    0.8124   -2.9205 O   0  0  0  0  0  0  0  0  0  0  0  0
    2.8942   -0.6274   -5.0037 O   0  0  0  0  0  0  0  0  0  0  0  0
    2.6170    1.8870   -5.2294 O   0  0  0  0  0  0  0  0  0  0  0  0
    9.0917    1.4690   -3.4683 C   0  0  0  0  0  0  0  0  0  0  0  0
    9.6918    0.8687   -4.1610 H   0  0  0  0  0  0  0  0  0  0  0  0
    9.3968    2.5131   -3.5761 H   0  0  0  0  0  0  0  0  0  0  0  0
    9.3524    1.1451   -2.4540 H   0  0  0  0  0  0  0  0  0  0  0  0
   -2.7682    0.1799   -1.8533 O   0  0  0  0  0  0  0  0  0  0  0  0
   -3.6572    1.2850   -1.8123 C   0  0  0  0  0  0  0  0  0  0  0  0
   -4.6393    0.8732   -1.5741 H   0  0  0  0  0  0  0  0  0  0  0  0
   -3.7074    1.8005   -2.7805 H   0  0  0  0  0  0  0  0  0  0  0  0
   -3.3713    2.0070   -1.0360 H   0  0  0  0  0  0  0  0  0  0  0  0
  1  6  1  0  0  0  0
  1  7  1  0  0  0  0
  2  1  2  0  0  0  0
  3  4  2  0  0  0  0
  3  2  1  0  0  0  0
  4  5  1  0  0  0  0
  5 10  1  0  0  0  0
  5  6  2  0  0  0  0
  6 31  1  0  0  0  0
  8  2  1  0  0  0  0
  9  4  1  0  0  0  0
 12 11  3  0  0  0  0
 13 19  1  0  0  0  0
 13 14  2  0  0  0  0
 14 20  1  0  0  0  0
 15 14  1  0  0  0  0
 15 27  1  0  0  0  0
 16 15  2  0  0  0  0
 17 18  2  0  0  0  0
 17 16  1  0  0  0  0
 18 13  1  0  0  0  0
 21 16  1  0  0  0  0
 22 17  1  0  0  0  0
 23 18  1  0  0  0  0
 23 24  1  0  0  0  0
 24  3  1  0  0  0  0
 25 23  2  0  0  0  0
 26 23  2  0  0  0  0
 27 30  1  0  0  0  0
 28 27  1  0  0  0  0
 29 27  1  0  0  0  0
 31 32  1  0  0  0  0
 32 33  1  0  0  0  0
 32 35  1  0  0  0  0
 34 32  1  0  0  0  0
M  END
