Coordinates from ORCA-job p-CH3O-Ph-N2-OTs-B3LYP-6-31G_dp-scan-d09-49-n400
 OpenBabel02051708043D

 35 35  0  0  0  0  0  0  0  0999 V2000
   -0.6236   -0.7114   -2.2122 C   0  0  0  0  0  0  0  0  0  0  0  0
    0.7304   -0.6026   -2.5009 C   0  0  0  0  0  0  0  0  0  0  0  0
    1.2846    0.6618   -2.7158 C   0  0  0  0  0  0  0  0  0  0  0  0
    0.4997    1.8074   -2.6534 C   0  0  0  0  0  0  0  0  0  0  0  0
   -0.8628    1.7002   -2.3625 C   0  0  0  0  0  0  0  0  0  0  0  0
   -1.4284    0.4376   -2.1410 C   0  0  0  0  0  0  0  0  0  0  0  0
   -1.0848   -1.6780   -2.0381 H   0  0  0  0  0  0  0  0  0  0  0  0
    1.3618   -1.4819   -2.5638 H   0  0  0  0  0  0  0  0  0  0  0  0
    0.9540    2.7759   -2.8315 H   0  0  0  0  0  0  0  0  0  0  0  0
   -1.4648    2.6001   -2.3157 H   0  0  0  0  0  0  0  0  0  0  0  0
    3.5882    2.0302   -0.0251 N   0  0  0  0  0  0  0  0  0  0  0  0
    4.2652    1.1564   -0.0131 N   0  0  0  0  0  0  0  0  0  0  0  0
    5.7150   -0.1763   -3.9232 C   0  0  0  0  0  0  0  0  0  0  0  0
    7.0720    0.0302   -3.6950 C   0  0  0  0  0  0  0  0  0  0  0  0
    7.6348    1.3149   -3.7717 C   0  0  0  0  0  0  0  0  0  0  0  0
    6.8000    2.3943   -4.0917 C   0  0  0  0  0  0  0  0  0  0  0  0
    5.4372    2.2092   -4.3225 C   0  0  0  0  0  0  0  0  0  0  0  0
    4.9086    0.9224   -4.2305 C   0  0  0  0  0  0  0  0  0  0  0  0
    5.2831   -1.1703   -3.8778 H   0  0  0  0  0  0  0  0  0  0  0  0
    7.7073   -0.8191   -3.4572 H   0  0  0  0  0  0  0  0  0  0  0  0
    7.2217    3.3930   -4.1667 H   0  0  0  0  0  0  0  0  0  0  0  0
    4.7927    3.0418   -4.5827 H   0  0  0  0  0  0  0  0  0  0  0  0
    3.1715    0.6723   -4.5305 S   0  0  0  0  0  0  0  0  0  0  0  0
    2.6685    0.7846   -2.9369 O   0  0  0  0  0  0  0  0  0  0  0  0
    2.9376   -0.6955   -4.9898 O   0  0  0  0  0  0  0  0  0  0  0  0
    2.6245    1.8093   -5.2680 O   0  0  0  0  0  0  0  0  0  0  0  0
    9.1076    1.5196   -3.5099 C   0  0  0  0  0  0  0  0  0  0  0  0
    9.7169    0.8410   -4.1160 H   0  0  0  0  0  0  0  0  0  0  0  0
    9.4171    2.5437   -3.7344 H   0  0  0  0  0  0  0  0  0  0  0  0
    9.3511    1.3195   -2.4595 H   0  0  0  0  0  0  0  0  0  0  0  0
   -2.7428    0.2179   -1.8489 O   0  0  0  0  0  0  0  0  0  0  0  0
   -3.6128    1.3366   -1.7804 C   0  0  0  0  0  0  0  0  0  0  0  0
   -4.6003    0.9365   -1.5447 H   0  0  0  0  0  0  0  0  0  0  0  0
   -3.6597    1.8723   -2.7378 H   0  0  0  0  0  0  0  0  0  0  0  0
   -3.3108    2.0380   -0.9913 H   0  0  0  0  0  0  0  0  0  0  0  0
  1  6  1  0  0  0  0
  1  7  1  0  0  0  0
  2  1  2  0  0  0  0
  3  4  2  0  0  0  0
  3  2  1  0  0  0  0
  4  5  1  0  0  0  0
  5 10  1  0  0  0  0
  5  6  2  0  0  0  0
  6 31  1  0  0  0  0
  8  2  1  0  0  0  0
  9  4  1  0  0  0  0
 11 12  3  0  0  0  0
 13 19  1  0  0  0  0
 13 14  2  0  0  0  0
 14 20  1  0  0  0  0
 15 14  1  0  0  0  0
 15 27  1  0  0  0  0
 16 15  2  0  0  0  0
 17 18  2  0  0  0  0
 17 16  1  0  0  0  0
 18 13  1  0  0  0  0
 21 16  1  0  0  0  0
 22 17  1  0  0  0  0
 23 18  1  0  0  0  0
 23 24  1  0  0  0  0
 24  3  1  0  0  0  0
 25 23  2  0  0  0  0
 26 23  2  0  0  0  0
 27 30  1  0  0  0  0
 28 27  1  0  0  0  0
 29 27  1  0  0  0  0
 31 32  1  0  0  0  0
 32 33  1  0  0  0  0
 32 35  1  0  0  0  0
 34 32  1  0  0  0  0
M  END
