Coordinates from ORCA-job p-CH3O-Ph-N2-OTs-B3LYP-6-31G_dp-scan-d09-49-n400
 OpenBabel02051708043D

 35 34  0  0  0  0  0  0  0  0999 V2000
   -0.5535   -0.0337   -2.7958 C   0  0  0  0  0  0  0  0  0  0  0  0
    0.4936    0.7423   -2.2902 C   0  0  0  0  0  0  0  0  0  0  0  0
    0.2070    1.6504   -1.4648 C   0  0  0  0  0  0  0  0  0  0  0  0
   -0.9293    2.1376   -0.8861 C   0  0  0  0  0  0  0  0  0  0  0  0
   -2.0166    1.3759   -1.3737 C   0  0  0  0  0  0  0  0  0  0  0  0
   -1.8356    0.3206   -2.3020 C   0  0  0  0  0  0  0  0  0  0  0  0
   -0.4563   -0.8435   -3.5116 H   0  0  0  0  0  0  0  0  0  0  0  0
    2.3630    0.5729   -2.8770 H   0  0  0  0  0  0  0  0  0  0  0  0
   -1.0321    2.9516   -0.1801 H   0  0  0  0  0  0  0  0  0  0  0  0
   -3.0088    1.6220   -1.0135 H   0  0  0  0  0  0  0  0  0  0  0  0
    2.1906    3.3943    0.0309 N   0  0  0  0  0  0  0  0  0  0  0  0
    3.2416    3.4779    0.3617 N   0  0  0  0  0  0  0  0  0  0  0  0
    6.4527    1.5685   -2.9368 C   0  0  0  0  0  0  0  0  0  0  0  0
    7.7871    1.2112   -3.1152 C   0  0  0  0  0  0  0  0  0  0  0  0
    8.2397    0.6785   -4.3322 C   0  0  0  0  0  0  0  0  0  0  0  0
    7.3190    0.5215   -5.3786 C   0  0  0  0  0  0  0  0  0  0  0  0
    5.9800    0.8741   -5.2199 C   0  0  0  0  0  0  0  0  0  0  0  0
    5.5588    1.3899   -3.9940 C   0  0  0  0  0  0  0  0  0  0  0  0
    6.1055    1.9950   -2.0020 H   0  0  0  0  0  0  0  0  0  0  0  0
    8.4909    1.3546   -2.2990 H   0  0  0  0  0  0  0  0  0  0  0  0
    7.6566    0.1241   -6.3322 H   0  0  0  0  0  0  0  0  0  0  0  0
    5.2705    0.7677   -6.0336 H   0  0  0  0  0  0  0  0  0  0  0  0
    3.8504    1.8550   -3.7826 S   0  0  0  0  0  0  0  0  0  0  0  0
    3.7443    2.8616   -2.7225 O   0  0  0  0  0  0  0  0  0  0  0  0
    3.2911    0.4366   -3.2069 O   0  0  0  0  0  0  0  0  0  0  0  0
    3.2547    2.1140   -5.0929 O   0  0  0  0  0  0  0  0  0  0  0  0
    9.6827    0.2678   -4.5043 C   0  0  0  0  0  0  0  0  0  0  0  0
   10.3541    0.9106   -3.9275 H   0  0  0  0  0  0  0  0  0  0  0  0
    9.8400   -0.7614   -4.1575 H   0  0  0  0  0  0  0  0  0  0  0  0
    9.9882    0.3083   -5.5540 H   0  0  0  0  0  0  0  0  0  0  0  0
   -2.8602   -0.4322   -2.7940 O   0  0  0  0  0  0  0  0  0  0  0  0
   -4.1874   -0.1400   -2.3835 C   0  0  0  0  0  0  0  0  0  0  0  0
   -4.8277   -0.8521   -2.9059 H   0  0  0  0  0  0  0  0  0  0  0  0
   -4.4806    0.8804   -2.6626 H   0  0  0  0  0  0  0  0  0  0  0  0
   -4.3132   -0.2698   -1.3003 H   0  0  0  0  0  0  0  0  0  0  0  0
  1  6  2  0  0  0  0
  1  2  1  0  0  0  0
  2  3  2  0  0  0  0
  3  4  1  0  0  0  0
  4  9  1  0  0  0  0
  5 10  1  0  0  0  0
  5  4  2  0  0  0  0
  6  5  1  0  0  0  0
  7  1  1  0  0  0  0
 11 12  3  0  0  0  0
 13 19  1  0  0  0  0
 14 13  1  0  0  0  0
 14 20  1  0  0  0  0
 15 14  2  0  0  0  0
 16 17  2  0  0  0  0
 16 15  1  0  0  0  0
 17 18  1  0  0  0  0
 18 23  1  0  0  0  0
 18 13  2  0  0  0  0
 21 16  1  0  0  0  0
 22 17  1  0  0  0  0
 23 25  1  0  0  0  0
 23 24  2  0  0  0  0
 25  8  1  0  0  0  0
 26 23  2  0  0  0  0
 27 15  1  0  0  0  0
 27 29  1  0  0  0  0
 27 28  1  0  0  0  0
 30 27  1  0  0  0  0
 31 32  1  0  0  0  0
 31  6  1  0  0  0  0
 32 35  1  0  0  0  0
 33 32  1  0  0  0  0
 34 32  1  0  0  0  0
M  RAD  2   2   2   3   2
M  END
