Coordinates from ORCA-job p-CH3O-Ph-N2-OTs-B3LYP-6-31G_dp-scan-d09-49-n400
 OpenBabel02051708043D

 35 36  0  0  1  0  0  0  0  0999 V2000
   -0.0255    0.8493   -3.4071 C   0  0  0  0  0  0  0  0  0  0  0  0
    0.9446    1.9638   -3.5025 C   0  0  1  0  0  0  0  0  0  0  0  0
    0.8899    2.9150   -2.3089 C   0  0  0  0  0  0  0  0  0  0  0  0
    0.2758    2.4450   -1.0675 C   0  0  0  0  0  0  0  0  0  0  0  0
   -0.4356    1.2980   -1.0305 C   0  0  0  0  0  0  0  0  0  0  0  0
   -0.6269    0.5101   -2.2416 C   0  0  0  0  0  0  0  0  0  0  0  0
   -0.1921    0.2515   -4.2961 H   0  0  0  0  0  0  0  0  0  0  0  0
    0.8421    2.5328   -4.4306 H   0  0  0  0  0  0  0  0  0  0  0  0
    0.4107    3.0589   -0.1817 H   0  0  0  0  0  0  0  0  0  0  0  0
   -0.8715    0.9735   -0.0942 H   0  0  0  0  0  0  0  0  0  0  0  0
    1.3826    3.9181   -2.3890 N   0  0  0  0  0  0  0  0  0  0  0  0
    1.8973    4.9480   -2.4809 N   0  0  0  0  0  0  0  0  0  0  0  0
    5.1748   -0.3074   -4.3161 C   0  0  0  0  0  0  0  0  0  0  0  0
    6.4736   -0.5627   -3.8812 C   0  0  0  0  0  0  0  0  0  0  0  0
    7.3477    0.4836   -3.5503 C   0  0  0  0  0  0  0  0  0  0  0  0
    6.8914    1.8046   -3.6770 C   0  0  0  0  0  0  0  0  0  0  0  0
    5.5968    2.0815   -4.1098 C   0  0  0  0  0  0  0  0  0  0  0  0
    4.7483    1.0174   -4.4203 C   0  0  0  0  0  0  0  0  0  0  0  0
    4.5023   -1.1142   -4.5862 H   0  0  0  0  0  0  0  0  0  0  0  0
    6.8169   -1.5914   -3.8029 H   0  0  0  0  0  0  0  0  0  0  0  0
    7.5610    2.6270   -3.4387 H   0  0  0  0  0  0  0  0  0  0  0  0
    5.2491    3.1031   -4.2224 H   0  0  0  0  0  0  0  0  0  0  0  0
    3.0916    1.3585   -4.9800 S   0  0  0  0  0  0  0  0  0  0  0  0
    2.3611    1.4271   -3.5121 O   0  0  0  0  0  0  0  0  0  0  0  0
    2.5757    0.2068   -5.7216 O   0  0  0  0  0  0  0  0  0  0  0  0
    3.0346    2.6939   -5.5834 O   0  0  0  0  0  0  0  0  0  0  0  0
    8.7425    0.1935   -3.0505 C   0  0  0  0  0  0  0  0  0  0  0  0
    8.7477    0.0677   -1.9601 H   0  0  0  0  0  0  0  0  0  0  0  0
    9.1402   -0.7277   -3.4862 H   0  0  0  0  0  0  0  0  0  0  0  0
    9.4318    1.0095   -3.2883 H   0  0  0  0  0  0  0  0  0  0  0  0
   -1.4311   -0.5926   -2.2524 O   0  0  0  0  0  0  0  0  0  0  0  0
   -2.2520   -0.8791   -1.1284 C   0  0  0  0  0  0  0  0  0  0  0  0
   -2.8591   -1.7385   -1.4188 H   0  0  0  0  0  0  0  0  0  0  0  0
   -2.9155   -0.0418   -0.8782 H   0  0  0  0  0  0  0  0  0  0  0  0
   -1.6606   -1.1511   -0.2444 H   0  0  0  0  0  0  0  0  0  0  0  0
  1  6  1  0  0  0  0
  2  8  1  6  0  0  0
  2  1  1  0  0  0  0
  2  3  1  0  0  0  0
  3  4  2  0  0  0  0
  4  5  1  0  0  0  0
  4  9  1  0  0  0  0
  5 10  1  0  0  0  0
  6  5  2  0  0  0  0
  7  1  1  0  0  0  0
 11  3  1  0  0  0  0
 12 11  1  0  0  0  0
 13 14  1  0  0  0  0
 14 20  1  0  0  0  0
 14 15  2  0  0  0  0
 15 27  1  0  0  0  0
 16 15  1  0  0  0  0
 16 21  1  0  0  0  0
 17 16  2  0  0  0  0
 18 13  2  0  0  0  0
 18 17  1  0  0  0  0
 19 13  1  0  0  0  0
 22 17  1  0  0  0  0
 23 18  1  0  0  0  0
 23 24  1  0  0  0  0
 24  2  1  0  0  0  0
 25 23  2  0  0  0  0
 26 23  2  0  0  0  0
 27 28  1  0  0  0  0
 29 27  1  0  0  0  0
 30 27  1  0  0  0  0
 31  6  1  0  0  0  0
 31 32  1  0  0  0  0
 32 34  1  0  0  0  0
 32 35  1  0  0  0  0
 33 32  1  0  0  0  0
M  RAD  3   1   2  11   2  12   3
M  END
