Coordinates from ORCA-job p-CH3O-Ph-N2-OTs-B3LYP-6-31G_dp-scan-d09-49-n400
 OpenBabel02051708043D

 35 36  0  0  1  0  0  0  0  0999 V2000
    0.0556    0.6177   -3.3687 C   0  0  0  0  0  0  0  0  0  0  0  0
    0.8443    1.8287   -3.6808 C   0  0  1  0  0  0  0  0  0  0  0  0
    0.6033    2.9422   -2.6878 C   0  0  0  0  0  0  0  0  0  0  0  0
    0.0654    2.6424   -1.3757 C   0  0  0  0  0  0  0  0  0  0  0  0
   -0.4466    1.4188   -1.1035 C   0  0  0  0  0  0  0  0  0  0  0  0
   -0.4926    0.4049   -2.1454 C   0  0  0  0  0  0  0  0  0  0  0  0
   -0.0135   -0.1496   -4.1314 H   0  0  0  0  0  0  0  0  0  0  0  0
    0.6813    2.1705   -4.7057 H   0  0  0  0  0  0  0  0  0  0  0  0
    0.0784    3.4282   -0.6261 H   0  0  0  0  0  0  0  0  0  0  0  0
   -0.8374    1.2101   -0.1159 H   0  0  0  0  0  0  0  0  0  0  0  0
    0.9254    4.0727   -2.9778 N   0  0  0  0  0  0  0  0  0  0  0  0
    1.2313    5.1411   -3.2564 N   0  0  0  0  0  0  0  0  0  0  0  0
    5.1444   -0.0805   -4.5894 C   0  0  0  0  0  0  0  0  0  0  0  0
    6.3862   -0.5391   -4.1556 C   0  0  0  0  0  0  0  0  0  0  0  0
    7.2858    0.3130   -3.4971 C   0  0  0  0  0  0  0  0  0  0  0  0
    6.9134    1.6498   -3.2890 C   0  0  0  0  0  0  0  0  0  0  0  0
    5.6750    2.1275   -3.7131 C   0  0  0  0  0  0  0  0  0  0  0  0
    4.7991    1.2519   -4.3567 C   0  0  0  0  0  0  0  0  0  0  0  0
    4.4557   -0.7350   -5.1130 H   0  0  0  0  0  0  0  0  0  0  0  0
    6.6660   -1.5732   -4.3386 H   0  0  0  0  0  0  0  0  0  0  0  0
    7.6052    2.3275   -2.7952 H   0  0  0  0  0  0  0  0  0  0  0  0
    5.3912    3.1639   -3.5665 H   0  0  0  0  0  0  0  0  0  0  0  0
    3.2185    1.8547   -4.9159 S   0  0  0  0  0  0  0  0  0  0  0  0
    2.3262    1.4463   -3.6087 O   0  0  0  0  0  0  0  0  0  0  0  0
    2.7647    1.0649   -6.0639 O   0  0  0  0  0  0  0  0  0  0  0  0
    3.2555    3.3179   -5.0197 O   0  0  0  0  0  0  0  0  0  0  0  0
    8.6188   -0.2018   -3.0083 C   0  0  0  0  0  0  0  0  0  0  0  0
    8.5472   -0.5472   -1.9693 H   0  0  0  0  0  0  0  0  0  0  0  0
    8.9665   -1.0469   -3.6097 H   0  0  0  0  0  0  0  0  0  0  0  0
    9.3853    0.5788   -3.0392 H   0  0  0  0  0  0  0  0  0  0  0  0
   -1.1097   -0.7963   -1.9452 O   0  0  0  0  0  0  0  0  0  0  0  0
   -1.8763   -1.0074   -0.7675 C   0  0  0  0  0  0  0  0  0  0  0  0
   -2.3387   -1.9884   -0.8891 H   0  0  0  0  0  0  0  0  0  0  0  0
   -2.6642   -0.2533   -0.6481 H   0  0  0  0  0  0  0  0  0  0  0  0
   -1.2505   -1.0231    0.1338 H   0  0  0  0  0  0  0  0  0  0  0  0
  1  6  1  0  0  0  0
  2  8  1  6  0  0  0
  2 24  1  0  0  0  0
  2  1  1  0  0  0  0
  2  3  1  0  0  0  0
  3  4  2  0  0  0  0
  4  5  1  0  0  0  0
  4  9  1  0  0  0  0
  5 10  1  0  0  0  0
  6 31  1  0  0  0  0
  6  5  2  0  0  0  0
  7  1  1  0  0  0  0
 11  3  1  0  0  0  0
 12 11  1  0  0  0  0
 13 18  2  0  0  0  0
 13 14  1  0  0  0  0
 14 15  2  0  0  0  0
 15 16  1  0  0  0  0
 15 27  1  0  0  0  0
 16 21  1  0  0  0  0
 17 22  1  0  0  0  0
 17 16  2  0  0  0  0
 18 17  1  0  0  0  0
 19 13  1  0  0  0  0
 20 14  1  0  0  0  0
 23 18  1  0  0  0  0
 23 24  1  0  0  0  0
 25 23  2  0  0  0  0
 26 23  2  0  0  0  0
 27 28  1  0  0  0  0
 29 27  1  0  0  0  0
 30 27  1  0  0  0  0
 31 32  1  0  0  0  0
 32 34  1  0  0  0  0
 32 35  1  0  0  0  0
 33 32  1  0  0  0  0
M  RAD  3   1   2  11   2  12   3
M  END
