Coordinates from ORCA-job p-CH3O-Ph-N2-OTs-B3LYP-6-31G_dp-scan-d09-49-n400
 OpenBabel02051708043D

 35 35  0  0  0  0  0  0  0  0999 V2000
   -0.6645   -0.7323   -2.1913 C   0  0  0  0  0  0  0  0  0  0  0  0
    0.6895   -0.5936   -2.4666 C   0  0  0  0  0  0  0  0  0  0  0  0
    1.2111    0.6785   -2.7134 C   0  0  0  0  0  0  0  0  0  0  0  0
    0.3939    1.8029   -2.6974 C   0  0  0  0  0  0  0  0  0  0  0  0
   -0.9693    1.6655   -2.4219 C   0  0  0  0  0  0  0  0  0  0  0  0
   -1.5022    0.3950   -2.1671 C   0  0  0  0  0  0  0  0  0  0  0  0
   -1.1006   -1.7057   -1.9924 H   0  0  0  0  0  0  0  0  0  0  0  0
    1.3463   -1.4560   -2.4938 H   0  0  0  0  0  0  0  0  0  0  0  0
    0.8225    2.7779   -2.9016 H   0  0  0  0  0  0  0  0  0  0  0  0
   -1.5968    2.5489   -2.4121 H   0  0  0  0  0  0  0  0  0  0  0  0
    4.8550    2.3566   -0.1151 N   0  0  0  0  0  0  0  0  0  0  0  0
    5.2681    1.3598   -0.3553 N   0  0  0  0  0  0  0  0  0  0  0  0
    5.6251   -0.1593   -3.8957 C   0  0  0  0  0  0  0  0  0  0  0  0
    6.9839    0.0093   -3.6492 C   0  0  0  0  0  0  0  0  0  0  0  0
    7.5791    1.2809   -3.6977 C   0  0  0  0  0  0  0  0  0  0  0  0
    6.7741    2.3864   -4.0038 C   0  0  0  0  0  0  0  0  0  0  0  0
    5.4095    2.2394   -4.2517 C   0  0  0  0  0  0  0  0  0  0  0  0
    4.8490    0.9645   -4.1908 C   0  0  0  0  0  0  0  0  0  0  0  0
    5.1683   -1.1429   -3.8714 H   0  0  0  0  0  0  0  0  0  0  0  0
    7.5951   -0.8593   -3.4180 H   0  0  0  0  0  0  0  0  0  0  0  0
    7.2207    3.3759   -4.0532 H   0  0  0  0  0  0  0  0  0  0  0  0
    4.7876    3.0927   -4.4995 H   0  0  0  0  0  0  0  0  0  0  0  0
    3.1092    0.7611   -4.5113 S   0  0  0  0  0  0  0  0  0  0  0  0
    2.5948    0.8288   -2.9197 O   0  0  0  0  0  0  0  0  0  0  0  0
    2.8503   -0.5845   -5.0199 O   0  0  0  0  0  0  0  0  0  0  0  0
    2.5934    1.9345   -5.2140 O   0  0  0  0  0  0  0  0  0  0  0  0
    9.0571    1.4413   -3.4340 C   0  0  0  0  0  0  0  0  0  0  0  0
    9.6517    0.9060   -4.1832 H   0  0  0  0  0  0  0  0  0  0  0  0
    9.3574    2.4919   -3.4559 H   0  0  0  0  0  0  0  0  0  0  0  0
    9.3305    1.0314   -2.4551 H   0  0  0  0  0  0  0  0  0  0  0  0
   -2.8137    0.1472   -1.8850 O   0  0  0  0  0  0  0  0  0  0  0  0
   -3.7150    1.2429   -1.8594 C   0  0  0  0  0  0  0  0  0  0  0  0
   -4.6940    0.8225   -1.6237 H   0  0  0  0  0  0  0  0  0  0  0  0
   -3.7646    1.7492   -2.8324 H   0  0  0  0  0  0  0  0  0  0  0  0
   -3.4418    1.9746   -1.0877 H   0  0  0  0  0  0  0  0  0  0  0  0
  1  6  1  0  0  0  0
  1  7  1  0  0  0  0
  2  1  2  0  0  0  0
  3  4  2  0  0  0  0
  3  2  1  0  0  0  0
  4  5  1  0  0  0  0
  5 10  1  0  0  0  0
  5  6  2  0  0  0  0
  6 31  1  0  0  0  0
  8  2  1  0  0  0  0
  9  4  1  0  0  0  0
 12 11  3  0  0  0  0
 13 19  1  0  0  0  0
 13 14  2  0  0  0  0
 14 20  1  0  0  0  0
 15 14  1  0  0  0  0
 15 27  1  0  0  0  0
 16 15  2  0  0  0  0
 17 18  2  0  0  0  0
 17 16  1  0  0  0  0
 18 13  1  0  0  0  0
 21 16  1  0  0  0  0
 22 17  1  0  0  0  0
 23 18  1  0  0  0  0
 23 24  1  0  0  0  0
 24  3  1  0  0  0  0
 25 23  2  0  0  0  0
 26 23  2  0  0  0  0
 27 30  1  0  0  0  0
 28 27  1  0  0  0  0
 29 27  1  0  0  0  0
 31 32  1  0  0  0  0
 32 33  1  0  0  0  0
 32 35  1  0  0  0  0
 34 32  1  0  0  0  0
M  END
