Coordinates from ORCA-job p-CH3O-Ph-N2-OTs-B3LYP-6-31G_dp-scan-d09-49-n400
 OpenBabel02051708043D

 35 35  0  0  0  0  0  0  0  0999 V2000
   -0.6577   -0.7317   -2.1990 C   0  0  0  0  0  0  0  0  0  0  0  0
    0.6969   -0.5928   -2.4708 C   0  0  0  0  0  0  0  0  0  0  0  0
    1.2209    0.6807   -2.7054 C   0  0  0  0  0  0  0  0  0  0  0  0
    0.4054    1.8062   -2.6804 C   0  0  0  0  0  0  0  0  0  0  0  0
   -0.9583    1.6686   -2.4080 C   0  0  0  0  0  0  0  0  0  0  0  0
   -1.4937    0.3966   -2.1657 C   0  0  0  0  0  0  0  0  0  0  0  0
   -1.0957   -1.7062   -2.0097 H   0  0  0  0  0  0  0  0  0  0  0  0
    1.3523   -1.4560   -2.5048 H   0  0  0  0  0  0  0  0  0  0  0  0
    0.8361    2.7823   -2.8748 H   0  0  0  0  0  0  0  0  0  0  0  0
   -1.5845    2.5529   -2.3911 H   0  0  0  0  0  0  0  0  0  0  0  0
    4.6392    2.3434   -0.0984 N   0  0  0  0  0  0  0  0  0  0  0  0
    5.0923    1.3622   -0.3307 N   0  0  0  0  0  0  0  0  0  0  0  0
    5.6369   -0.1587   -3.8876 C   0  0  0  0  0  0  0  0  0  0  0  0
    6.9978    0.0089   -3.6522 C   0  0  0  0  0  0  0  0  0  0  0  0
    7.5949    1.2790   -3.7129 C   0  0  0  0  0  0  0  0  0  0  0  0
    6.7896    2.3843   -4.0190 C   0  0  0  0  0  0  0  0  0  0  0  0
    5.4229    2.2383   -4.2559 C   0  0  0  0  0  0  0  0  0  0  0  0
    4.8606    0.9648   -4.1837 C   0  0  0  0  0  0  0  0  0  0  0  0
    5.1788   -1.1414   -3.8548 H   0  0  0  0  0  0  0  0  0  0  0  0
    7.6092   -0.8595   -3.4211 H   0  0  0  0  0  0  0  0  0  0  0  0
    7.2376    3.3726   -4.0780 H   0  0  0  0  0  0  0  0  0  0  0  0
    4.8008    3.0912   -4.5045 H   0  0  0  0  0  0  0  0  0  0  0  0
    3.1201    0.7614   -4.5007 S   0  0  0  0  0  0  0  0  0  0  0  0
    2.6048    0.8318   -2.9092 O   0  0  0  0  0  0  0  0  0  0  0  0
    2.8610   -0.5852   -5.0066 O   0  0  0  0  0  0  0  0  0  0  0  0
    2.6040    1.9334   -5.2054 O   0  0  0  0  0  0  0  0  0  0  0  0
    9.0752    1.4381   -3.4615 C   0  0  0  0  0  0  0  0  0  0  0  0
    9.6630    0.8881   -4.2053 H   0  0  0  0  0  0  0  0  0  0  0  0
    9.3793    2.4871   -3.5026 H   0  0  0  0  0  0  0  0  0  0  0  0
    9.3533    1.0437   -2.4776 H   0  0  0  0  0  0  0  0  0  0  0  0
   -2.8060    0.1484   -1.8879 O   0  0  0  0  0  0  0  0  0  0  0  0
   -3.7056    1.2452   -1.8539 C   0  0  0  0  0  0  0  0  0  0  0  0
   -4.6856    0.8242   -1.6231 H   0  0  0  0  0  0  0  0  0  0  0  0
   -3.7532    1.7600   -2.8225 H   0  0  0  0  0  0  0  0  0  0  0  0
   -3.4323    1.9698   -1.0755 H   0  0  0  0  0  0  0  0  0  0  0  0
  1  6  1  0  0  0  0
  1  7  1  0  0  0  0
  2  1  2  0  0  0  0
  3  4  2  0  0  0  0
  3  2  1  0  0  0  0
  4  5  1  0  0  0  0
  5 10  1  0  0  0  0
  5  6  2  0  0  0  0
  6 31  1  0  0  0  0
  8  2  1  0  0  0  0
  9  4  1  0  0  0  0
 12 11  3  0  0  0  0
 13 19  1  0  0  0  0
 13 14  2  0  0  0  0
 14 20  1  0  0  0  0
 15 14  1  0  0  0  0
 15 27  1  0  0  0  0
 16 15  2  0  0  0  0
 17 18  2  0  0  0  0
 17 16  1  0  0  0  0
 18 13  1  0  0  0  0
 21 16  1  0  0  0  0
 22 17  1  0  0  0  0
 23 18  1  0  0  0  0
 23 24  1  0  0  0  0
 24  3  1  0  0  0  0
 25 23  2  0  0  0  0
 26 23  2  0  0  0  0
 27 30  1  0  0  0  0
 28 27  1  0  0  0  0
 29 27  1  0  0  0  0
 31 32  1  0  0  0  0
 32 33  1  0  0  0  0
 32 35  1  0  0  0  0
 34 32  1  0  0  0  0
M  END
