Coordinates from ORCA-job p-CH3O-Ph-N2-OTs-B3LYP-6-31G_dp-scan-d09-49-n400
 OpenBabel02051708043D

 35 35  0  0  0  0  0  0  0  0999 V2000
   -0.6664   -0.7329   -2.1936 C   0  0  0  0  0  0  0  0  0  0  0  0
    0.6880   -0.5910   -2.4653 C   0  0  0  0  0  0  0  0  0  0  0  0
    1.2073    0.6826   -2.7094 C   0  0  0  0  0  0  0  0  0  0  0  0
    0.3876    1.8051   -2.6942 C   0  0  0  0  0  0  0  0  0  0  0  0
   -0.9759    1.6644   -2.4222 C   0  0  0  0  0  0  0  0  0  0  0  0
   -1.5067    0.3924   -2.1702 C   0  0  0  0  0  0  0  0  0  0  0  0
   -1.1008   -1.7076   -1.9970 H   0  0  0  0  0  0  0  0  0  0  0  0
    1.3467   -1.4520   -2.4918 H   0  0  0  0  0  0  0  0  0  0  0  0
    0.8147    2.7813   -2.8961 H   0  0  0  0  0  0  0  0  0  0  0  0
   -1.6054    2.5464   -2.4129 H   0  0  0  0  0  0  0  0  0  0  0  0
    4.8859    2.3694   -0.1101 N   0  0  0  0  0  0  0  0  0  0  0  0
    5.2925    1.3701   -0.3507 N   0  0  0  0  0  0  0  0  0  0  0  0
    5.6223   -0.1568   -3.8884 C   0  0  0  0  0  0  0  0  0  0  0  0
    6.9825    0.0081   -3.6471 C   0  0  0  0  0  0  0  0  0  0  0  0
    7.5814    1.2778   -3.6999 C   0  0  0  0  0  0  0  0  0  0  0  0
    6.7785    2.3854   -4.0040 C   0  0  0  0  0  0  0  0  0  0  0  0
    5.4125    2.2421   -4.2467 C   0  0  0  0  0  0  0  0  0  0  0  0
    4.8484    0.9689   -4.1824 C   0  0  0  0  0  0  0  0  0  0  0  0
    5.1628   -1.1390   -3.8614 H   0  0  0  0  0  0  0  0  0  0  0  0
    7.5920   -0.8620   -3.4172 H   0  0  0  0  0  0  0  0  0  0  0  0
    7.2278    3.3734   -4.0567 H   0  0  0  0  0  0  0  0  0  0  0  0
    4.7924    3.0969   -4.4937 H   0  0  0  0  0  0  0  0  0  0  0  0
    3.1082    0.7690   -4.5032 S   0  0  0  0  0  0  0  0  0  0  0  0
    2.5911    0.8365   -2.9124 O   0  0  0  0  0  0  0  0  0  0  0  0
    2.8476   -0.5759   -5.0128 O   0  0  0  0  0  0  0  0  0  0  0  0
    2.5952    1.9436   -5.2059 O   0  0  0  0  0  0  0  0  0  0  0  0
    9.0610    1.4340   -3.4430 C   0  0  0  0  0  0  0  0  0  0  0  0
    9.6506    0.8954   -4.1939 H   0  0  0  0  0  0  0  0  0  0  0  0
    9.3646    2.4836   -3.4681 H   0  0  0  0  0  0  0  0  0  0  0  0
    9.3374    1.0250   -2.4646 H   0  0  0  0  0  0  0  0  0  0  0  0
   -2.8183    0.1414   -1.8917 O   0  0  0  0  0  0  0  0  0  0  0  0
   -3.7220    1.2351   -1.8668 C   0  0  0  0  0  0  0  0  0  0  0  0
   -4.7007    0.8122   -1.6338 H   0  0  0  0  0  0  0  0  0  0  0  0
   -3.7706    1.7424   -2.8393 H   0  0  0  0  0  0  0  0  0  0  0  0
   -3.4521    1.9665   -1.0937 H   0  0  0  0  0  0  0  0  0  0  0  0
  1  6  1  0  0  0  0
  1  7  1  0  0  0  0
  2  1  2  0  0  0  0
  3  4  2  0  0  0  0
  3  2  1  0  0  0  0
  4  5  1  0  0  0  0
  5 10  1  0  0  0  0
  5  6  2  0  0  0  0
  6 31  1  0  0  0  0
  8  2  1  0  0  0  0
  9  4  1  0  0  0  0
 12 11  3  0  0  0  0
 13 19  1  0  0  0  0
 13 14  2  0  0  0  0
 14 20  1  0  0  0  0
 15 14  1  0  0  0  0
 15 27  1  0  0  0  0
 16 15  2  0  0  0  0
 17 18  2  0  0  0  0
 17 16  1  0  0  0  0
 18 13  1  0  0  0  0
 21 16  1  0  0  0  0
 22 17  1  0  0  0  0
 23 18  1  0  0  0  0
 23 24  1  0  0  0  0
 24  3  1  0  0  0  0
 25 23  2  0  0  0  0
 26 23  2  0  0  0  0
 27 30  1  0  0  0  0
 28 27  1  0  0  0  0
 29 27  1  0  0  0  0
 31 32  1  0  0  0  0
 32 33  1  0  0  0  0
 32 35  1  0  0  0  0
 34 32  1  0  0  0  0
M  END
