Coordinates from ORCA-job p-CH3O-Ph-N2-OTs-B3LYP-6-31G_dp-scan-d09-49-n400
 OpenBabel02051708043D

 35 36  0  0  1  0  0  0  0  0999 V2000
    0.0724    0.5406   -3.3378 C   0  0  0  0  0  0  0  0  0  0  0  0
    0.7878    1.7640   -3.7349 C   0  0  1  0  0  0  0  0  0  0  0  0
    0.4465    2.8781   -2.8273 C   0  0  1  0  0  0  0  0  0  0  0  0
   -0.0972    2.7114   -1.5231 C   0  0  0  0  0  0  0  0  0  0  0  0
   -0.5386    1.4781   -1.1468 C   0  0  0  0  0  0  0  0  0  0  0  0
   -0.4831    0.3900   -2.1008 C   0  0  0  0  0  0  0  0  0  0  0  0
    0.0603   -0.2911   -4.0324 H   0  0  0  0  0  0  0  0  0  0  0  0
    0.6766    2.0012   -4.7936 H   0  0  0  0  0  0  0  0  0  0  0  0
   -0.1608    3.5637   -0.8545 H   0  0  0  0  0  0  0  0  0  0  0  0
   -0.9472    1.3310   -0.1562 H   0  0  0  0  0  0  0  0  0  0  0  0
    0.7943    4.1943   -3.2357 N   0  0  0  0  0  0  0  0  0  0  0  0
    1.0693    5.2379   -3.5715 N   0  0  0  0  0  0  0  0  0  0  0  0
    5.1889    0.0272   -4.7095 C   0  0  0  0  0  0  0  0  0  0  0  0
    6.4178   -0.4937   -4.3089 C   0  0  0  0  0  0  0  0  0  0  0  0
    7.2949    0.2512   -3.5071 C   0  0  0  0  0  0  0  0  0  0  0  0
    6.9139    1.5455   -3.1203 C   0  0  0  0  0  0  0  0  0  0  0  0
    5.6893    2.0831   -3.5096 C   0  0  0  0  0  0  0  0  0  0  0  0
    4.8337    1.3129   -4.2992 C   0  0  0  0  0  0  0  0  0  0  0  0
    4.5172   -0.5424   -5.3432 H   0  0  0  0  0  0  0  0  0  0  0  0
    6.7040   -1.4916   -4.6297 H   0  0  0  0  0  0  0  0  0  0  0  0
    7.5895    2.1428   -2.5125 H   0  0  0  0  0  0  0  0  0  0  0  0
    5.4008    3.0889   -3.2250 H   0  0  0  0  0  0  0  0  0  0  0  0
    3.2645    1.9891   -4.8111 S   0  0  0  0  0  0  0  0  0  0  0  0
    2.3389    1.4400   -3.6035 O   0  0  0  0  0  0  0  0  0  0  0  0
    2.8461    1.3577   -6.0681 O   0  0  0  0  0  0  0  0  0  0  0  0
    3.3224    3.4570   -4.7433 O   0  0  0  0  0  0  0  0  0  0  0  0
    8.6135   -0.3301   -3.0553 C   0  0  0  0  0  0  0  0  0  0  0  0
    8.5354   -0.7332   -2.0377 H   0  0  0  0  0  0  0  0  0  0  0  0
    8.9363   -1.1471   -3.7071 H   0  0  0  0  0  0  0  0  0  0  0  0
    9.4021    0.4291   -3.0426 H   0  0  0  0  0  0  0  0  0  0  0  0
   -1.0187   -0.8346   -1.8232 O   0  0  0  0  0  0  0  0  0  0  0  0
   -1.7545   -1.0233   -0.6228 C   0  0  0  0  0  0  0  0  0  0  0  0
   -2.1279   -2.0479   -0.6633 H   0  0  0  0  0  0  0  0  0  0  0  0
   -2.6059   -0.3351   -0.5501 H   0  0  0  0  0  0  0  0  0  0  0  0
   -1.1223   -0.9126    0.2675 H   0  0  0  0  0  0  0  0  0  0  0  0
  1  6  2  0  0  0  0
  2  8  1  6  0  0  0
  2 24  1  0  0  0  0
  2  1  1  0  0  0  0
  2  3  1  0  0  0  0
  3 11  1  1  0  0  0
  3  4  1  0  0  0  0
  4  5  2  0  0  0  0
  4  9  1  0  0  0  0
  5 10  1  0  0  0  0
  6 31  1  0  0  0  0
  6  5  1  0  0  0  0
  7  1  1  0  0  0  0
 12 11  1  0  0  0  0
 13 14  2  0  0  0  0
 13 18  1  0  0  0  0
 14 15  1  0  0  0  0
 15 16  2  0  0  0  0
 15 27  1  0  0  0  0
 16 21  1  0  0  0  0
 17 22  1  0  0  0  0
 17 16  1  0  0  0  0
 18 17  2  0  0  0  0
 19 13  1  0  0  0  0
 20 14  1  0  0  0  0
 23 26  2  0  0  0  0
 23 18  1  0  0  0  0
 23 24  1  0  0  0  0
 25 23  2  0  0  0  0
 27 30  1  0  0  0  0
 27 28  1  0  0  0  0
 29 27  1  0  0  0  0
 31 32  1  0  0  0  0
 32 34  1  0  0  0  0
 32 35  1  0  0  0  0
 33 32  1  0  0  0  0
M  RAD  3   3   2  11   2  12   3
M  END
