Coordinates from ORCA-job p-CH3O-Ph-N2-OTs-B3LYP-6-31G_dp-scan-d09-49-n400
 OpenBabel02051708043D

 35 35  0  0  0  0  0  0  0  0999 V2000
   -0.4017    0.0122   -2.5783 C   0  0  0  0  0  0  0  0  0  0  0  0
    0.4358    0.9714   -3.1405 C   0  0  0  0  0  0  0  0  0  0  0  0
    0.0863    2.2588   -2.7985 C   0  0  0  0  0  0  0  0  0  0  0  0
   -0.9375    2.7193   -2.0052 C   0  0  0  0  0  0  0  0  0  0  0  0
   -1.7459    1.7221   -1.4532 C   0  0  0  0  0  0  0  0  0  0  0  0
   -1.4779    0.3700   -1.7400 C   0  0  0  0  0  0  0  0  0  0  0  0
   -0.2240   -1.0399   -2.7738 H   0  0  0  0  0  0  0  0  0  0  0  0
    1.2943    0.7284   -3.7774 H   0  0  0  0  0  0  0  0  0  0  0  0
   -1.1073    3.7710   -1.8129 H   0  0  0  0  0  0  0  0  0  0  0  0
   -2.5689    2.0120   -0.8124 H   0  0  0  0  0  0  0  0  0  0  0  0
    1.0408    3.5189   -3.4814 N   0  0  0  0  0  0  0  0  0  0  0  0
    1.7523    4.1915   -4.0132 N   0  0  0  0  0  0  0  0  0  0  0  0
    5.9496    0.5116   -5.0916 C   0  0  0  0  0  0  0  0  0  0  0  0
    7.2919    0.1355   -5.0905 C   0  0  0  0  0  0  0  0  0  0  0  0
    8.1400    0.4767   -4.0266 C   0  0  0  0  0  0  0  0  0  0  0  0
    7.6046    1.2097   -2.9579 C   0  0  0  0  0  0  0  0  0  0  0  0
    6.2639    1.5933   -2.9467 C   0  0  0  0  0  0  0  0  0  0  0  0
    5.4399    1.2422   -4.0167 C   0  0  0  0  0  0  0  0  0  0  0  0
    5.2913    0.2351   -5.9086 H   0  0  0  0  0  0  0  0  0  0  0  0
    7.6885   -0.4341   -5.9283 H   0  0  0  0  0  0  0  0  0  0  0  0
    8.2464    1.4823   -2.1229 H   0  0  0  0  0  0  0  0  0  0  0  0
    5.8457    2.1490   -2.1138 H   0  0  0  0  0  0  0  0  0  0  0  0
    3.7276    1.7826   -4.0304 S   0  0  0  0  0  0  0  0  0  0  0  0
    3.3016    1.9144   -2.6080 O   0  0  0  0  0  0  0  0  0  0  0  0
    2.9694    0.7271   -4.7722 O   0  0  0  0  0  0  0  0  0  0  0  0
    3.7180    3.1088   -4.7427 O   0  0  0  0  0  0  0  0  0  0  0  0
    9.5857    0.0365   -4.0175 C   0  0  0  0  0  0  0  0  0  0  0  0
    9.6937   -0.9602   -3.5698 H   0  0  0  0  0  0  0  0  0  0  0  0
    9.9948   -0.0188   -5.0313 H   0  0  0  0  0  0  0  0  0  0  0  0
   10.2101    0.7221   -3.4362 H   0  0  0  0  0  0  0  0  0  0  0  0
   -2.2003   -0.6640   -1.2577 O   0  0  0  0  0  0  0  0  0  0  0  0
   -3.2984   -0.3975   -0.3890 C   0  0  0  0  0  0  0  0  0  0  0  0
   -3.7127   -1.3714   -0.1287 H   0  0  0  0  0  0  0  0  0  0  0  0
   -4.0677    0.2025   -0.8904 H   0  0  0  0  0  0  0  0  0  0  0  0
   -2.9695    0.1126    0.5243 H   0  0  0  0  0  0  0  0  0  0  0  0
  1  6  2  0  0  0  0
  2  3  2  0  0  0  0
  2  1  1  0  0  0  0
  3  4  1  0  0  0  0
  4  9  1  0  0  0  0
  4  5  2  0  0  0  0
  5 10  1  0  0  0  0
  6  5  1  0  0  0  0
  6 31  1  0  0  0  0
  7  1  1  0  0  0  0
  8  2  1  0  0  0  0
 11  3  1  0  0  0  0
 12 11  1  0  0  0  0
 13 14  2  0  0  0  0
 13 18  1  0  0  0  0
 14 15  1  0  0  0  0
 15 27  1  0  0  0  0
 15 16  2  0  0  0  0
 16 17  1  0  0  0  0
 16 21  1  0  0  0  0
 17 22  1  0  0  0  0
 18 17  2  0  0  0  0
 19 13  1  0  0  0  0
 20 14  1  0  0  0  0
 23 18  1  0  0  0  0
 23 24  1  0  0  0  0
 25 23  2  0  0  0  0
 26 23  2  0  0  0  0
 27 28  1  0  0  0  0
 27 30  1  0  0  0  0
 29 27  1  0  0  0  0
 31 32  1  0  0  0  0
 32 33  1  0  0  0  0
 32 35  1  0  0  0  0
 34 32  1  0  0  0  0
M  RAD  3  11   2  12   3  24   2
M  END
