Coordinates from ORCA-job p-CH3O-Ph-N2-OTs-B3LYP-6-31G_dp-scan-d09-49-n400
 OpenBabel02051708043D

 35 36  0  0  1  0  0  0  0  0999 V2000
    0.0441    0.6407   -3.3803 C   0  0  0  0  0  0  0  0  0  0  0  0
    0.8525    1.8449   -3.6697 C   0  0  1  0  0  0  0  0  0  0  0  0
    0.6357    2.9525   -2.6547 C   0  0  0  0  0  0  0  0  0  0  0  0
    0.0998    2.6221   -1.3430 C   0  0  0  0  0  0  0  0  0  0  0  0
   -0.4311    1.4026   -1.0971 C   0  0  0  0  0  0  0  0  0  0  0  0
   -0.5029    0.4115   -2.1605 C   0  0  0  0  0  0  0  0  0  0  0  0
   -0.0410   -0.1078   -4.1600 H   0  0  0  0  0  0  0  0  0  0  0  0
    0.6871    2.2141   -4.6849 H   0  0  0  0  0  0  0  0  0  0  0  0
    0.1333    3.3897   -0.5752 H   0  0  0  0  0  0  0  0  0  0  0  0
   -0.8178    1.1783   -0.1111 H   0  0  0  0  0  0  0  0  0  0  0  0
    0.9594    4.0463   -2.9181 N   0  0  0  0  0  0  0  0  0  0  0  0
    1.2786    5.1190   -3.1783 N   0  0  0  0  0  0  0  0  0  0  0  0
    5.1331   -0.1046   -4.5504 C   0  0  0  0  0  0  0  0  0  0  0  0
    6.3785   -0.5476   -4.1110 C   0  0  0  0  0  0  0  0  0  0  0  0
    7.2857    0.3284   -3.4952 C   0  0  0  0  0  0  0  0  0  0  0  0
    6.9169    1.6727   -3.3358 C   0  0  0  0  0  0  0  0  0  0  0  0
    5.6748    2.1354   -3.7660 C   0  0  0  0  0  0  0  0  0  0  0  0
    4.7918    1.2366   -4.3664 C   0  0  0  0  0  0  0  0  0  0  0  0
    4.4391   -0.7783   -5.0413 H   0  0  0  0  0  0  0  0  0  0  0  0
    6.6554   -1.5886   -4.2561 H   0  0  0  0  0  0  0  0  0  0  0  0
    7.6141    2.3681   -2.8755 H   0  0  0  0  0  0  0  0  0  0  0  0
    5.3930    3.1770   -3.6569 H   0  0  0  0  0  0  0  0  0  0  0  0
    3.2073    1.8207   -4.9338 S   0  0  0  0  0  0  0  0  0  0  0  0
    2.3237    1.4473   -3.6075 O   0  0  0  0  0  0  0  0  0  0  0  0
    2.7465    0.9968   -6.0543 O   0  0  0  0  0  0  0  0  0  0  0  0
    3.2396    3.2801   -5.0777 O   0  0  0  0  0  0  0  0  0  0  0  0
    8.6227   -0.1697   -3.0002 C   0  0  0  0  0  0  0  0  0  0  0  0
    8.5538   -0.5024   -1.9569 H   0  0  0  0  0  0  0  0  0  0  0  0
    8.9763   -1.0201   -3.5906 H   0  0  0  0  0  0  0  0  0  0  0  0
    9.3834    0.6160   -3.0420 H   0  0  0  0  0  0  0  0  0  0  0  0
   -1.1429   -0.7808   -1.9818 O   0  0  0  0  0  0  0  0  0  0  0  0
   -1.9024   -1.0043   -0.8016 C   0  0  0  0  0  0  0  0  0  0  0  0
   -2.3869   -1.9720   -0.9425 H   0  0  0  0  0  0  0  0  0  0  0  0
   -2.6728   -0.2369   -0.6559 H   0  0  0  0  0  0  0  0  0  0  0  0
   -1.2682   -1.0556    0.0924 H   0  0  0  0  0  0  0  0  0  0  0  0
  1  6  1  0  0  0  0
  2  8  1  6  0  0  0
  2 24  1  0  0  0  0
  2  1  1  0  0  0  0
  2  3  1  0  0  0  0
  3  4  2  0  0  0  0
  4  5  1  0  0  0  0
  4  9  1  0  0  0  0
  5 10  1  0  0  0  0
  6 31  1  0  0  0  0
  6  5  2  0  0  0  0
  7  1  1  0  0  0  0
 11  3  1  0  0  0  0
 12 11  1  0  0  0  0
 13 18  2  0  0  0  0
 13 14  1  0  0  0  0
 14 15  2  0  0  0  0
 15 16  1  0  0  0  0
 15 27  1  0  0  0  0
 16 21  1  0  0  0  0
 17 22  1  0  0  0  0
 17 16  2  0  0  0  0
 18 17  1  0  0  0  0
 19 13  1  0  0  0  0
 20 14  1  0  0  0  0
 23 18  1  0  0  0  0
 23 24  1  0  0  0  0
 25 23  2  0  0  0  0
 26 23  2  0  0  0  0
 27 28  1  0  0  0  0
 29 27  1  0  0  0  0
 30 27  1  0  0  0  0
 31 32  1  0  0  0  0
 32 34  1  0  0  0  0
 32 35  1  0  0  0  0
 33 32  1  0  0  0  0
M  RAD  3   1   2  11   2  12   3
M  END
