Coordinates from ORCA-job p-CH3O-Ph-N2-OTs-B3LYP-6-31G_dp-scan-d09-49-n400
 OpenBabel02051708043D

 35 36  0  0  1  0  0  0  0  0999 V2000
    0.0621    0.6005   -3.3609 C   0  0  0  0  0  0  0  0  0  0  0  0
    0.8346    1.8162   -3.6908 C   0  0  1  0  0  0  0  0  0  0  0  0
    0.5718    2.9296   -2.7153 C   0  0  0  0  0  0  0  0  0  0  0  0
    0.0324    2.6589   -1.4051 C   0  0  0  0  0  0  0  0  0  0  0  0
   -0.4632    1.4318   -1.1105 C   0  0  0  0  0  0  0  0  0  0  0  0
   -0.4869    0.4004   -2.1344 C   0  0  0  0  0  0  0  0  0  0  0  0
    0.0055   -0.1812   -4.1097 H   0  0  0  0  0  0  0  0  0  0  0  0
    0.6779    2.1358   -4.7235 H   0  0  0  0  0  0  0  0  0  0  0  0
    0.0275    3.4601   -0.6720 H   0  0  0  0  0  0  0  0  0  0  0  0
   -0.8579    1.2362   -0.1220 H   0  0  0  0  0  0  0  0  0  0  0  0
    0.8990    4.1058   -3.0307 N   0  0  0  0  0  0  0  0  0  0  0  0
    1.1960    5.1689   -3.3217 N   0  0  0  0  0  0  0  0  0  0  0  0
    5.1540   -0.0598   -4.6198 C   0  0  0  0  0  0  0  0  0  0  0  0
    6.3930   -0.5314   -4.1915 C   0  0  0  0  0  0  0  0  0  0  0  0
    7.2864    0.2993   -3.4986 C   0  0  0  0  0  0  0  0  0  0  0  0
    6.9110    1.6285   -3.2501 C   0  0  0  0  0  0  0  0  0  0  0  0
    5.6757    2.1188   -3.6683 C   0  0  0  0  0  0  0  0  0  0  0  0
    4.8055    1.2640   -4.3469 C   0  0  0  0  0  0  0  0  0  0  0  0
    4.4699   -0.6972   -5.1697 H   0  0  0  0  0  0  0  0  0  0  0  0
    6.6752   -1.5588   -4.4056 H   0  0  0  0  0  0  0  0  0  0  0  0
    7.5984    2.2904   -2.7293 H   0  0  0  0  0  0  0  0  0  0  0  0
    5.3901    3.1498   -3.4908 H   0  0  0  0  0  0  0  0  0  0  0  0
    3.2276    1.8822   -4.8982 S   0  0  0  0  0  0  0  0  0  0  0  0
    2.3284    1.4457   -3.6087 O   0  0  0  0  0  0  0  0  0  0  0  0
    2.7807    1.1220   -6.0691 O   0  0  0  0  0  0  0  0  0  0  0  0
    3.2691    3.3479   -4.9686 O   0  0  0  0  0  0  0  0  0  0  0  0
    8.6162   -0.2293   -3.0160 C   0  0  0  0  0  0  0  0  0  0  0  0
    8.5443   -0.5803   -1.9789 H   0  0  0  0  0  0  0  0  0  0  0  0
    8.9561   -1.0732   -3.6234 H   0  0  0  0  0  0  0  0  0  0  0  0
    9.3889    0.5455   -3.0436 H   0  0  0  0  0  0  0  0  0  0  0  0
   -1.0851   -0.8075   -1.9172 O   0  0  0  0  0  0  0  0  0  0  0  0
   -1.8505   -1.0124   -0.7378 C   0  0  0  0  0  0  0  0  0  0  0  0
   -2.2922   -2.0049   -0.8420 H   0  0  0  0  0  0  0  0  0  0  0  0
   -2.6542   -0.2727   -0.6348 H   0  0  0  0  0  0  0  0  0  0  0  0
   -1.2271   -0.9978    0.1652 H   0  0  0  0  0  0  0  0  0  0  0  0
  1  6  1  0  0  0  0
  2  8  1  6  0  0  0
  2 24  1  0  0  0  0
  2  1  1  0  0  0  0
  2  3  1  0  0  0  0
  3  4  2  0  0  0  0
  4  5  1  0  0  0  0
  4  9  1  0  0  0  0
  5 10  1  0  0  0  0
  6 31  1  0  0  0  0
  6  5  2  0  0  0  0
  7  1  1  0  0  0  0
 11  3  1  0  0  0  0
 12 11  1  0  0  0  0
 13 18  2  0  0  0  0
 13 14  1  0  0  0  0
 14 15  2  0  0  0  0
 15 16  1  0  0  0  0
 15 27  1  0  0  0  0
 16 21  1  0  0  0  0
 17 22  1  0  0  0  0
 17 16  2  0  0  0  0
 18 17  1  0  0  0  0
 19 13  1  0  0  0  0
 20 14  1  0  0  0  0
 23 18  1  0  0  0  0
 23 24  1  0  0  0  0
 25 23  2  0  0  0  0
 26 23  2  0  0  0  0
 27 28  1  0  0  0  0
 29 27  1  0  0  0  0
 30 27  1  0  0  0  0
 31 32  1  0  0  0  0
 32 34  1  0  0  0  0
 32 35  1  0  0  0  0
 33 32  1  0  0  0  0
M  RAD  3   1   2  11   2  12   3
M  END
