Coordinates from ORCA-job p-CH3O-Ph-N2-OTs-B3LYP-6-31G_dp-scan-d09-49-n400
 OpenBabel02051708043D

 35 35  0  0  0  0  0  0  0  0999 V2000
   -0.6272   -0.7196   -2.2098 C   0  0  0  0  0  0  0  0  0  0  0  0
    0.7267   -0.6045   -2.4961 C   0  0  0  0  0  0  0  0  0  0  0  0
    1.2750    0.6622   -2.7126 C   0  0  0  0  0  0  0  0  0  0  0  0
    0.4841    1.8040   -2.6547 C   0  0  0  0  0  0  0  0  0  0  0  0
   -0.8785    1.6904   -2.3666 C   0  0  0  0  0  0  0  0  0  0  0  0
   -1.4381    0.4254   -2.1430 C   0  0  0  0  0  0  0  0  0  0  0  0
   -1.0839   -1.6881   -2.0342 H   0  0  0  0  0  0  0  0  0  0  0  0
    1.3628   -1.4806   -2.5556 H   0  0  0  0  0  0  0  0  0  0  0  0
    0.9337    2.7743   -2.8343 H   0  0  0  0  0  0  0  0  0  0  0  0
   -1.4852    2.5873   -2.3234 H   0  0  0  0  0  0  0  0  0  0  0  0
    3.7479    2.1358   -0.0704 N   0  0  0  0  0  0  0  0  0  0  0  0
    4.3943    1.2405   -0.1205 N   0  0  0  0  0  0  0  0  0  0  0  0
    5.6992   -0.1740   -3.9240 C   0  0  0  0  0  0  0  0  0  0  0  0
    7.0574    0.0208   -3.6932 C   0  0  0  0  0  0  0  0  0  0  0  0
    7.6294    1.3022   -3.7584 C   0  0  0  0  0  0  0  0  0  0  0  0
    6.8024    2.3902   -4.0691 C   0  0  0  0  0  0  0  0  0  0  0  0
    5.4384    2.2168   -4.3023 C   0  0  0  0  0  0  0  0  0  0  0  0
    4.9007    0.9330   -4.2220 C   0  0  0  0  0  0  0  0  0  0  0  0
    5.2603   -1.1653   -3.8872 H   0  0  0  0  0  0  0  0  0  0  0  0
    7.6865   -0.8350   -3.4623 H   0  0  0  0  0  0  0  0  0  0  0  0
    7.2312    3.3865   -4.1348 H   0  0  0  0  0  0  0  0  0  0  0  0
    4.7999    3.0562   -4.5552 H   0  0  0  0  0  0  0  0  0  0  0  0
    3.1623    0.6976   -4.5258 S   0  0  0  0  0  0  0  0  0  0  0  0
    2.6588    0.7903   -2.9310 O   0  0  0  0  0  0  0  0  0  0  0  0
    2.9200   -0.6621   -5.0045 O   0  0  0  0  0  0  0  0  0  0  0  0
    2.6227    1.8484   -5.2475 O   0  0  0  0  0  0  0  0  0  0  0  0
    9.1036    1.4938   -3.4951 C   0  0  0  0  0  0  0  0  0  0  0  0
    9.7084    0.8276   -4.1195 H   0  0  0  0  0  0  0  0  0  0  0  0
    9.4173    2.5217   -3.6952 H   0  0  0  0  0  0  0  0  0  0  0  0
    9.3488    1.2663   -2.4508 H   0  0  0  0  0  0  0  0  0  0  0  0
   -2.7519    0.1998   -1.8531 O   0  0  0  0  0  0  0  0  0  0  0  0
   -3.6276    1.3142   -1.7882 C   0  0  0  0  0  0  0  0  0  0  0  0
   -4.6135    0.9096   -1.5533 H   0  0  0  0  0  0  0  0  0  0  0  0
   -3.6756    1.8478   -2.7467 H   0  0  0  0  0  0  0  0  0  0  0  0
   -3.3304    2.0186   -1.0000 H   0  0  0  0  0  0  0  0  0  0  0  0
  1  6  1  0  0  0  0
  1  7  1  0  0  0  0
  2  1  2  0  0  0  0
  3  4  2  0  0  0  0
  3  2  1  0  0  0  0
  4  5  1  0  0  0  0
  5 10  1  0  0  0  0
  5  6  2  0  0  0  0
  6 31  1  0  0  0  0
  8  2  1  0  0  0  0
  9  4  1  0  0  0  0
 12 11  3  0  0  0  0
 13 19  1  0  0  0  0
 13 14  2  0  0  0  0
 14 20  1  0  0  0  0
 15 14  1  0  0  0  0
 15 27  1  0  0  0  0
 16 15  2  0  0  0  0
 17 18  2  0  0  0  0
 17 16  1  0  0  0  0
 18 13  1  0  0  0  0
 21 16  1  0  0  0  0
 22 17  1  0  0  0  0
 23 18  1  0  0  0  0
 23 24  1  0  0  0  0
 24  3  1  0  0  0  0
 25 23  2  0  0  0  0
 26 23  2  0  0  0  0
 27 30  1  0  0  0  0
 28 27  1  0  0  0  0
 29 27  1  0  0  0  0
 31 32  1  0  0  0  0
 32 33  1  0  0  0  0
 32 35  1  0  0  0  0
 34 32  1  0  0  0  0
M  END
