Coordinates from ORCA-job p-CH3O-Ph-N2-OTs-B3LYP-6-31G_dp-scan-d09-49-n400
 OpenBabel02051708043D

 35 34  0  0  0  0  0  0  0  0999 V2000
   -0.2207    0.3910   -3.1106 C   0  0  0  0  0  0  0  0  0  0  0  0
    0.6719    1.4773   -3.0123 C   0  0  0  0  0  0  0  0  0  0  0  0
    0.2725    2.2742   -2.0257 C   0  0  0  0  0  0  0  0  0  0  0  0
   -0.7150    2.3349   -1.1006 C   0  0  0  0  0  0  0  0  0  0  0  0
   -1.5710    1.2228   -1.2413 C   0  0  0  0  0  0  0  0  0  0  0  0
   -1.3228    0.2604   -2.2399 C   0  0  0  0  0  0  0  0  0  0  0  0
   -0.0513   -0.3689   -3.8675 H   0  0  0  0  0  0  0  0  0  0  0  0
    1.5996    1.6092   -3.6840 H   0  0  0  0  0  0  0  0  0  0  0  0
   -0.8543    3.1047   -0.3536 H   0  0  0  0  0  0  0  0  0  0  0  0
   -2.4128    1.1404   -0.5649 H   0  0  0  0  0  0  0  0  0  0  0  0
    1.4622    4.0213   -1.8264 N   0  0  0  0  0  0  0  0  0  0  0  0
    1.8369    5.0562   -1.7326 N   0  0  0  0  0  0  0  0  0  0  0  0
    5.6944    0.5422   -3.0383 C   0  0  0  0  0  0  0  0  0  0  0  0
    6.8733   -0.1706   -3.2420 C   0  0  0  0  0  0  0  0  0  0  0  0
    7.8130    0.2401   -4.2011 C   0  0  0  0  0  0  0  0  0  0  0  0
    7.5394    1.3931   -4.9472 C   0  0  0  0  0  0  0  0  0  0  0  0
    6.3616    2.1173   -4.7531 C   0  0  0  0  0  0  0  0  0  0  0  0
    5.4408    1.6856   -3.7999 C   0  0  0  0  0  0  0  0  0  0  0  0
    4.9776    0.2348   -2.2838 H   0  0  0  0  0  0  0  0  0  0  0  0
    7.0711   -1.0586   -2.6451 H   0  0  0  0  0  0  0  0  0  0  0  0
    8.2598    1.7321   -5.6883 H   0  0  0  0  0  0  0  0  0  0  0  0
    6.1580    3.0192   -5.3206 H   0  0  0  0  0  0  0  0  0  0  0  0
    3.8997    2.5854   -3.5833 S   0  0  0  0  0  0  0  0  0  0  0  0
    3.5038    2.4039   -2.1556 O   0  0  0  0  0  0  0  0  0  0  0  0
    2.9085    1.8696   -4.4960 O   0  0  0  0  0  0  0  0  0  0  0  0
    4.1490    3.9787   -4.0000 O   0  0  0  0  0  0  0  0  0  0  0  0
    9.0889   -0.5427   -4.4097 C   0  0  0  0  0  0  0  0  0  0  0  0
    9.6962   -0.5672   -3.4965 H   0  0  0  0  0  0  0  0  0  0  0  0
    8.8784   -1.5837   -4.6821 H   0  0  0  0  0  0  0  0  0  0  0  0
    9.6997   -0.1059   -5.2052 H   0  0  0  0  0  0  0  0  0  0  0  0
   -2.0920   -0.8351   -2.4443 O   0  0  0  0  0  0  0  0  0  0  0  0
   -3.2183   -1.0514   -1.6013 C   0  0  0  0  0  0  0  0  0  0  0  0
   -3.6732   -1.9806   -1.9452 H   0  0  0  0  0  0  0  0  0  0  0  0
   -3.9473   -0.2358   -1.6904 H   0  0  0  0  0  0  0  0  0  0  0  0
   -2.9174   -1.1621   -0.5520 H   0  0  0  0  0  0  0  0  0  0  0  0
  1  2  2  0  0  0  0
  1  6  1  0  0  0  0
  2  3  1  0  0  0  0
  3  4  2  0  0  0  0
  4  9  1  0  0  0  0
  5  4  1  0  0  0  0
  5 10  1  0  0  0  0
  6  5  2  0  0  0  0
  7  1  1  0  0  0  0
  8  2  1  0  0  0  0
 11 12  3  0  0  0  0
 13 19  1  0  0  0  0
 14 13  1  0  0  0  0
 14 20  1  0  0  0  0
 15 14  2  0  0  0  0
 16 17  2  0  0  0  0
 16 15  1  0  0  0  0
 17 18  1  0  0  0  0
 18 23  1  0  0  0  0
 18 13  2  0  0  0  0
 21 16  1  0  0  0  0
 22 17  1  0  0  0  0
 23 24  1  0  0  0  0
 25 23  2  0  0  0  0
 26 23  2  0  0  0  0
 27 15  1  0  0  0  0
 27 28  1  0  0  0  0
 29 27  1  0  0  0  0
 30 27  1  0  0  0  0
 31  6  1  0  0  0  0
 31 32  1  0  0  0  0
 32 35  1  0  0  0  0
 33 32  1  0  0  0  0
 34 32  1  0  0  0  0
M  RAD  2   3   2  24   2
M  END
