Coordinates from ORCA-job p-CH3O-Ph-N2-OTs-B3LYP-6-31G_dp-scan-d09-49-n400
 OpenBabel02051708043D

 35 36  0  0  1  0  0  0  0  0999 V2000
    0.0195    0.7922   -3.3988 C   0  0  0  0  0  0  0  0  0  0  0  0
    0.9066    1.9663   -3.5490 C   0  0  1  0  0  0  0  0  0  0  0  0
    0.7710    2.9625   -2.4103 C   0  0  0  0  0  0  0  0  0  0  0  0
    0.1763    2.5326   -1.1521 C   0  0  0  0  0  0  0  0  0  0  0  0
   -0.4527    1.3401   -1.0535 C   0  0  0  0  0  0  0  0  0  0  0  0
   -0.5676    0.4741   -2.2188 C   0  0  0  0  0  0  0  0  0  0  0  0
   -0.0919    0.1356   -4.2542 H   0  0  0  0  0  0  0  0  0  0  0  0
    0.7759    2.4723   -4.5091 H   0  0  0  0  0  0  0  0  0  0  0  0
    0.2509    3.2053   -0.3027 H   0  0  0  0  0  0  0  0  0  0  0  0
   -0.8811    1.0414   -0.1055 H   0  0  0  0  0  0  0  0  0  0  0  0
    1.2124    4.0279   -2.5416 N   0  0  0  0  0  0  0  0  0  0  0  0
    1.6550    5.0810   -2.6825 N   0  0  0  0  0  0  0  0  0  0  0  0
    5.1229   -0.2433   -4.3560 C   0  0  0  0  0  0  0  0  0  0  0  0
    6.4018   -0.5778   -3.9166 C   0  0  0  0  0  0  0  0  0  0  0  0
    7.3190    0.4112   -3.5298 C   0  0  0  0  0  0  0  0  0  0  0  0
    6.9264    1.7561   -3.6043 C   0  0  0  0  0  0  0  0  0  0  0  0
    5.6520    2.1119   -4.0405 C   0  0  0  0  0  0  0  0  0  0  0  0
    4.7594    1.1034   -4.4074 C   0  0  0  0  0  0  0  0  0  0  0  0
    4.4183   -1.0057   -4.6699 H   0  0  0  0  0  0  0  0  0  0  0  0
    6.6961   -1.6239   -3.8796 H   0  0  0  0  0  0  0  0  0  0  0  0
    7.6301    2.5353   -3.3228 H   0  0  0  0  0  0  0  0  0  0  0  0
    5.3526    3.1521   -4.1135 H   0  0  0  0  0  0  0  0  0  0  0  0
    3.1285    1.5463   -4.9718 S   0  0  0  0  0  0  0  0  0  0  0  0
    2.3624    1.5143   -3.5257 O   0  0  0  0  0  0  0  0  0  0  0  0
    2.5920    0.4805   -5.8214 O   0  0  0  0  0  0  0  0  0  0  0  0
    3.1318    2.9283   -5.4629 O   0  0  0  0  0  0  0  0  0  0  0  0
    8.6921    0.0344   -3.0271 C   0  0  0  0  0  0  0  0  0  0  0  0
    8.6798   -0.1261   -1.9415 H   0  0  0  0  0  0  0  0  0  0  0  0
    9.0468   -0.8916   -3.4889 H   0  0  0  0  0  0  0  0  0  0  0  0
    9.4246    0.8210   -3.2328 H   0  0  0  0  0  0  0  0  0  0  0  0
   -1.2870   -0.6854   -2.1756 O   0  0  0  0  0  0  0  0  0  0  0  0
   -2.0784   -0.9835   -1.0337 C   0  0  0  0  0  0  0  0  0  0  0  0
   -2.6156   -1.9012   -1.2795 H   0  0  0  0  0  0  0  0  0  0  0  0
   -2.8057   -0.1910   -0.8179 H   0  0  0  0  0  0  0  0  0  0  0  0
   -1.4637   -1.1645   -0.1428 H   0  0  0  0  0  0  0  0  0  0  0  0
  1  6  1  0  0  0  0
  2  8  1  6  0  0  0
  2 24  1  0  0  0  0
  2  1  1  0  0  0  0
  2  3  1  0  0  0  0
  3  4  2  0  0  0  0
  4  5  1  0  0  0  0
  4  9  1  0  0  0  0
  5 10  1  0  0  0  0
  6 31  1  0  0  0  0
  6  5  2  0  0  0  0
  7  1  1  0  0  0  0
 11  3  1  0  0  0  0
 12 11  1  0  0  0  0
 13 14  1  0  0  0  0
 14 20  1  0  0  0  0
 14 15  2  0  0  0  0
 15 27  1  0  0  0  0
 16 15  1  0  0  0  0
 16 21  1  0  0  0  0
 17 16  2  0  0  0  0
 18 13  2  0  0  0  0
 18 17  1  0  0  0  0
 19 13  1  0  0  0  0
 22 17  1  0  0  0  0
 23 18  1  0  0  0  0
 23 24  1  0  0  0  0
 25 23  2  0  0  0  0
 26 23  2  0  0  0  0
 27 28  1  0  0  0  0
 29 27  1  0  0  0  0
 30 27  1  0  0  0  0
 31 32  1  0  0  0  0
 32 34  1  0  0  0  0
 32 35  1  0  0  0  0
 33 32  1  0  0  0  0
M  RAD  3   1   2  11   2  12   3
M  END
