Coordinates from ORCA-job p-CH3O-Ph-N2-OTs-B3LYP-6-31G_dp-scan-d09-49-n400
 OpenBabel02051708043D

 35 36  0  0  1  0  0  0  0  0999 V2000
    0.0586    0.6100   -3.3650 C   0  0  0  0  0  0  0  0  0  0  0  0
    0.8400    1.8231   -3.6853 C   0  0  1  0  0  0  0  0  0  0  0  0
    0.5898    2.9370   -2.7001 C   0  0  0  0  0  0  0  0  0  0  0  0
    0.0511    2.6500   -1.3886 C   0  0  0  0  0  0  0  0  0  0  0  0
   -0.4539    1.4249   -1.1065 C   0  0  0  0  0  0  0  0  0  0  0  0
   -0.4900    0.4030   -2.1403 C   0  0  0  0  0  0  0  0  0  0  0  0
   -0.0049   -0.1640   -4.1214 H   0  0  0  0  0  0  0  0  0  0  0  0
    0.6799    2.1549   -4.7138 H   0  0  0  0  0  0  0  0  0  0  0  0
    0.0561    3.4427   -0.6462 H   0  0  0  0  0  0  0  0  0  0  0  0
   -0.8466    1.2221   -0.1184 H   0  0  0  0  0  0  0  0  0  0  0  0
    0.9135    4.0858   -3.0010 N   0  0  0  0  0  0  0  0  0  0  0  0
    1.2153    5.1520   -3.2853 N   0  0  0  0  0  0  0  0  0  0  0  0
    5.1489   -0.0713   -4.6035 C   0  0  0  0  0  0  0  0  0  0  0  0
    6.3895   -0.5357   -4.1721 C   0  0  0  0  0  0  0  0  0  0  0  0
    7.2861    0.3070   -3.4978 C   0  0  0  0  0  0  0  0  0  0  0  0
    6.9121    1.6404   -3.2713 C   0  0  0  0  0  0  0  0  0  0  0  0
    5.6751    2.1236   -3.6928 C   0  0  0  0  0  0  0  0  0  0  0  0
    4.8020    1.2572   -4.3525 C   0  0  0  0  0  0  0  0  0  0  0  0
    4.4624   -0.7183   -5.1392 H   0  0  0  0  0  0  0  0  0  0  0  0
    6.6705   -1.5668   -4.3693 H   0  0  0  0  0  0  0  0  0  0  0  0
    7.6018    2.3112   -2.7651 H   0  0  0  0  0  0  0  0  0  0  0  0
    5.3903    3.1577   -3.5321 H   0  0  0  0  0  0  0  0  0  0  0  0
    3.2225    1.8669   -4.9083 S   0  0  0  0  0  0  0  0  0  0  0  0
    2.3272    1.4458   -3.6089 O   0  0  0  0  0  0  0  0  0  0  0  0
    2.7719    1.0901   -6.0665 O   0  0  0  0  0  0  0  0  0  0  0  0
    3.2614    3.3313   -4.9971 O   0  0  0  0  0  0  0  0  0  0  0  0
    8.6177   -0.2139   -3.0118 C   0  0  0  0  0  0  0  0  0  0  0  0
    8.5460   -0.5619   -1.9736 H   0  0  0  0  0  0  0  0  0  0  0  0
    8.9621   -1.0583   -3.6159 H   0  0  0  0  0  0  0  0  0  0  0  0
    9.3869    0.5642   -3.0410 H   0  0  0  0  0  0  0  0  0  0  0  0
   -1.0985   -0.8012   -1.9324 O   0  0  0  0  0  0  0  0  0  0  0  0
   -1.8652   -1.0093   -0.7543 C   0  0  0  0  0  0  0  0  0  0  0  0
   -2.3183   -1.9956   -0.8682 H   0  0  0  0  0  0  0  0  0  0  0  0
   -2.6603   -0.2615   -0.6428 H   0  0  0  0  0  0  0  0  0  0  0  0
   -1.2409   -1.0113    0.1482 H   0  0  0  0  0  0  0  0  0  0  0  0
  1  6  1  0  0  0  0
  2  8  1  6  0  0  0
  2 24  1  0  0  0  0
  2  1  1  0  0  0  0
  2  3  1  0  0  0  0
  3  4  2  0  0  0  0
  4  5  1  0  0  0  0
  4  9  1  0  0  0  0
  5 10  1  0  0  0  0
  6 31  1  0  0  0  0
  6  5  2  0  0  0  0
  7  1  1  0  0  0  0
 11  3  1  0  0  0  0
 12 11  1  0  0  0  0
 13 18  2  0  0  0  0
 13 14  1  0  0  0  0
 14 15  2  0  0  0  0
 15 16  1  0  0  0  0
 15 27  1  0  0  0  0
 16 21  1  0  0  0  0
 17 22  1  0  0  0  0
 17 16  2  0  0  0  0
 18 17  1  0  0  0  0
 19 13  1  0  0  0  0
 20 14  1  0  0  0  0
 23 18  1  0  0  0  0
 23 24  1  0  0  0  0
 25 23  2  0  0  0  0
 26 23  2  0  0  0  0
 27 28  1  0  0  0  0
 29 27  1  0  0  0  0
 30 27  1  0  0  0  0
 31 32  1  0  0  0  0
 32 34  1  0  0  0  0
 32 35  1  0  0  0  0
 33 32  1  0  0  0  0
M  RAD  3   1   2  11   2  12   3
M  END
