Coordinates from ORCA-job p-CH3O-Ph-N2-OTs-B3LYP-6-31G_dp-scan-d09-49-n400
 OpenBabel02051708043D

 35 34  0  0  0  0  0  0  0  0999 V2000
   -0.4799    0.0804   -2.7777 C   0  0  0  0  0  0  0  0  0  0  0  0
    0.5310    0.8680   -2.2144 C   0  0  0  0  0  0  0  0  0  0  0  0
    0.1787    1.7243   -1.3571 C   0  0  0  0  0  0  0  0  0  0  0  0
   -0.9878    2.1417   -0.7864 C   0  0  0  0  0  0  0  0  0  0  0  0
   -2.0335    1.3641   -1.3352 C   0  0  0  0  0  0  0  0  0  0  0  0
   -1.7874    0.3605   -2.3046 C   0  0  0  0  0  0  0  0  0  0  0  0
   -0.3333   -0.6915   -3.5264 H   0  0  0  0  0  0  0  0  0  0  0  0
    2.3714    0.6934   -2.7803 H   0  0  0  0  0  0  0  0  0  0  0  0
   -1.1372    2.9181   -0.0471 H   0  0  0  0  0  0  0  0  0  0  0  0
   -3.0429    1.5573   -0.9908 H   0  0  0  0  0  0  0  0  0  0  0  0
    2.0079    3.2891   -0.0179 N   0  0  0  0  0  0  0  0  0  0  0  0
    3.0670    3.3708    0.2873 N   0  0  0  0  0  0  0  0  0  0  0  0
    6.4937    1.6381   -2.9611 C   0  0  0  0  0  0  0  0  0  0  0  0
    7.8170    1.2491   -3.1575 C   0  0  0  0  0  0  0  0  0  0  0  0
    8.2250    0.6412   -4.3545 C   0  0  0  0  0  0  0  0  0  0  0  0
    7.2709    0.4409   -5.3634 C   0  0  0  0  0  0  0  0  0  0  0  0
    5.9430    0.8242   -5.1863 C   0  0  0  0  0  0  0  0  0  0  0  0
    5.5662    1.4154   -3.9798 C   0  0  0  0  0  0  0  0  0  0  0  0
    6.1806    2.1216   -2.0422 H   0  0  0  0  0  0  0  0  0  0  0  0
    8.5469    1.4267   -2.3716 H   0  0  0  0  0  0  0  0  0  0  0  0
    7.5737   -0.0149   -6.3025 H   0  0  0  0  0  0  0  0  0  0  0  0
    5.2081    0.6842   -5.9720 H   0  0  0  0  0  0  0  0  0  0  0  0
    3.8719    1.9206   -3.7459 S   0  0  0  0  0  0  0  0  0  0  0  0
    3.8132    2.9754   -2.7298 O   0  0  0  0  0  0  0  0  0  0  0  0
    3.3044    0.5396   -3.0963 O   0  0  0  0  0  0  0  0  0  0  0  0
    3.2463    2.1341   -5.0507 O   0  0  0  0  0  0  0  0  0  0  0  0
    9.6554    0.1963   -4.5455 C   0  0  0  0  0  0  0  0  0  0  0  0
   10.3506    0.8314   -3.9889 H   0  0  0  0  0  0  0  0  0  0  0  0
    9.7958   -0.8318   -4.1881 H   0  0  0  0  0  0  0  0  0  0  0  0
    9.9437    0.2159   -5.6007 H   0  0  0  0  0  0  0  0  0  0  0  0
   -2.7681   -0.4081   -2.8574 O   0  0  0  0  0  0  0  0  0  0  0  0
   -4.1149   -0.1913   -2.4650 C   0  0  0  0  0  0  0  0  0  0  0  0
   -4.7131   -0.9036   -3.0348 H   0  0  0  0  0  0  0  0  0  0  0  0
   -4.4456    0.8282   -2.7030 H   0  0  0  0  0  0  0  0  0  0  0  0
   -4.2586   -0.3777   -1.3923 H   0  0  0  0  0  0  0  0  0  0  0  0
  1  6  2  0  0  0  0
  1  2  1  0  0  0  0
  2  3  2  0  0  0  0
  3  4  1  0  0  0  0
  4  9  1  0  0  0  0
  5 10  1  0  0  0  0
  5  4  2  0  0  0  0
  6  5  1  0  0  0  0
  7  1  1  0  0  0  0
 11 12  3  0  0  0  0
 13 19  1  0  0  0  0
 14 13  1  0  0  0  0
 14 20  1  0  0  0  0
 15 14  2  0  0  0  0
 16 17  2  0  0  0  0
 16 15  1  0  0  0  0
 17 18  1  0  0  0  0
 18 23  1  0  0  0  0
 18 13  2  0  0  0  0
 21 16  1  0  0  0  0
 22 17  1  0  0  0  0
 23 25  1  0  0  0  0
 23 24  2  0  0  0  0
 25  8  1  0  0  0  0
 26 23  2  0  0  0  0
 27 15  1  0  0  0  0
 27 29  1  0  0  0  0
 27 28  1  0  0  0  0
 30 27  1  0  0  0  0
 31 32  1  0  0  0  0
 31  6  1  0  0  0  0
 32 35  1  0  0  0  0
 33 32  1  0  0  0  0
 34 32  1  0  0  0  0
M  RAD  2   2   2   3   2
M  END
