Coordinates from ORCA-job p-CH3O-Ph-N2-OTs-B3LYP-6-31G_dp-scan-d09-49-n400
 OpenBabel02051708043D

 35 35  0  0  0  0  0  0  0  0999 V2000
   -0.6337   -0.7211   -2.1881 C   0  0  0  0  0  0  0  0  0  0  0  0
    0.7202   -0.5949   -2.4699 C   0  0  0  0  0  0  0  0  0  0  0  0
    1.2551    0.6742   -2.7044 C   0  0  0  0  0  0  0  0  0  0  0  0
    0.4510    1.8077   -2.6691 C   0  0  0  0  0  0  0  0  0  0  0  0
   -0.9118    1.6828   -2.3863 C   0  0  0  0  0  0  0  0  0  0  0  0
   -1.4580    0.4154   -2.1444 C   0  0  0  0  0  0  0  0  0  0  0  0
   -1.0800   -1.6918   -1.9987 H   0  0  0  0  0  0  0  0  0  0  0  0
    1.3665   -1.4646   -2.5119 H   0  0  0  0  0  0  0  0  0  0  0  0
    0.8902    2.7801   -2.8630 H   0  0  0  0  0  0  0  0  0  0  0  0
   -1.5290    2.5732   -2.3612 H   0  0  0  0  0  0  0  0  0  0  0  0
    4.0963    2.2089   -0.1488 N   0  0  0  0  0  0  0  0  0  0  0  0
    4.6612    1.2748   -0.3221 N   0  0  0  0  0  0  0  0  0  0  0  0
    5.6754   -0.1689   -3.9148 C   0  0  0  0  0  0  0  0  0  0  0  0
    7.0343    0.0143   -3.6792 C   0  0  0  0  0  0  0  0  0  0  0  0
    7.6153    1.2923   -3.7315 C   0  0  0  0  0  0  0  0  0  0  0  0
    6.7965    2.3889   -4.0329 C   0  0  0  0  0  0  0  0  0  0  0  0
    5.4319    2.2272   -4.2708 C   0  0  0  0  0  0  0  0  0  0  0  0
    4.8852    0.9465   -4.2042 C   0  0  0  0  0  0  0  0  0  0  0  0
    5.2293   -1.1573   -3.8877 H   0  0  0  0  0  0  0  0  0  0  0  0
    7.6569   -0.8478   -3.4542 H   0  0  0  0  0  0  0  0  0  0  0  0
    7.2322    3.3829   -4.0869 H   0  0  0  0  0  0  0  0  0  0  0  0
    4.7996    3.0736   -4.5159 H   0  0  0  0  0  0  0  0  0  0  0  0
    3.1457    0.7255   -4.5129 S   0  0  0  0  0  0  0  0  0  0  0  0
    2.6384    0.8129   -2.9189 O   0  0  0  0  0  0  0  0  0  0  0  0
    2.8945   -0.6294   -5.0002 O   0  0  0  0  0  0  0  0  0  0  0  0
    2.6165    1.8846   -5.2291 O   0  0  0  0  0  0  0  0  0  0  0  0
    9.0918    1.4695   -3.4703 C   0  0  0  0  0  0  0  0  0  0  0  0
    9.6912    0.8700   -4.1642 H   0  0  0  0  0  0  0  0  0  0  0  0
    9.3964    2.5138   -3.5776 H   0  0  0  0  0  0  0  0  0  0  0  0
    9.3540    1.1448   -2.4566 H   0  0  0  0  0  0  0  0  0  0  0  0
   -2.7705    0.1793   -1.8573 O   0  0  0  0  0  0  0  0  0  0  0  0
   -3.6591    1.2847   -1.8138 C   0  0  0  0  0  0  0  0  0  0  0  0
   -4.6415    0.8726   -1.5773 H   0  0  0  0  0  0  0  0  0  0  0  0
   -3.7084    1.8028   -2.7807 H   0  0  0  0  0  0  0  0  0  0  0  0
   -3.3734    2.0043   -1.0353 H   0  0  0  0  0  0  0  0  0  0  0  0
  1  6  1  0  0  0  0
  1  7  1  0  0  0  0
  2  1  2  0  0  0  0
  3  4  2  0  0  0  0
  3  2  1  0  0  0  0
  4  5  1  0  0  0  0
  5 10  1  0  0  0  0
  5  6  2  0  0  0  0
  6 31  1  0  0  0  0
  8  2  1  0  0  0  0
  9  4  1  0  0  0  0
 12 11  3  0  0  0  0
 13 19  1  0  0  0  0
 13 14  2  0  0  0  0
 14 20  1  0  0  0  0
 15 14  1  0  0  0  0
 15 27  1  0  0  0  0
 16 15  2  0  0  0  0
 17 18  2  0  0  0  0
 17 16  1  0  0  0  0
 18 13  1  0  0  0  0
 21 16  1  0  0  0  0
 22 17  1  0  0  0  0
 23 18  1  0  0  0  0
 23 24  1  0  0  0  0
 24  3  1  0  0  0  0
 25 23  2  0  0  0  0
 26 23  2  0  0  0  0
 27 30  1  0  0  0  0
 28 27  1  0  0  0  0
 29 27  1  0  0  0  0
 31 32  1  0  0  0  0
 32 33  1  0  0  0  0
 32 35  1  0  0  0  0
 34 32  1  0  0  0  0
M  END
