Coordinates from ORCA-job p-CH3O-Ph-N2-OTs-B3LYP-6-31G_dp-scan-d09-49-n400
 OpenBabel02051708043D

 35 35  0  0  0  0  0  0  0  0999 V2000
   -0.6391   -0.7242   -2.1987 C   0  0  0  0  0  0  0  0  0  0  0  0
    0.7152   -0.5957   -2.4771 C   0  0  0  0  0  0  0  0  0  0  0  0
    1.2498    0.6749   -2.7034 C   0  0  0  0  0  0  0  0  0  0  0  0
    0.4450    1.8079   -2.6636 C   0  0  0  0  0  0  0  0  0  0  0  0
   -0.9183    1.6806   -2.3841 C   0  0  0  0  0  0  0  0  0  0  0  0
   -1.4642    0.4115   -2.1503 C   0  0  0  0  0  0  0  0  0  0  0  0
   -1.0853   -1.6962   -2.0157 H   0  0  0  0  0  0  0  0  0  0  0  0
    1.3620   -1.4648   -2.5226 H   0  0  0  0  0  0  0  0  0  0  0  0
    0.8839    2.7815   -2.8513 H   0  0  0  0  0  0  0  0  0  0  0  0
   -1.5361    2.5705   -2.3553 H   0  0  0  0  0  0  0  0  0  0  0  0
    4.1635    2.2377   -0.1326 N   0  0  0  0  0  0  0  0  0  0  0  0
    4.7137    1.2967   -0.3156 N   0  0  0  0  0  0  0  0  0  0  0  0
    5.6700   -0.1666   -3.9037 C   0  0  0  0  0  0  0  0  0  0  0  0
    7.0297    0.0138   -3.6708 C   0  0  0  0  0  0  0  0  0  0  0  0
    7.6146    1.2896   -3.7313 C   0  0  0  0  0  0  0  0  0  0  0  0
    6.7987    2.3871   -4.0374 C   0  0  0  0  0  0  0  0  0  0  0  0
    5.4332    2.2282   -4.2724 C   0  0  0  0  0  0  0  0  0  0  0  0
    4.8828    0.9496   -4.1981 C   0  0  0  0  0  0  0  0  0  0  0  0
    5.2211   -1.1535   -3.8705 H   0  0  0  0  0  0  0  0  0  0  0  0
    7.6499   -0.8490   -3.4416 H   0  0  0  0  0  0  0  0  0  0  0  0
    7.2373    3.3795   -4.0975 H   0  0  0  0  0  0  0  0  0  0  0  0
    4.8030    3.0752   -4.5209 H   0  0  0  0  0  0  0  0  0  0  0  0
    3.1431    0.7313   -4.5079 S   0  0  0  0  0  0  0  0  0  0  0  0
    2.6335    0.8162   -2.9145 O   0  0  0  0  0  0  0  0  0  0  0  0
    2.8909   -0.6225   -4.9978 O   0  0  0  0  0  0  0  0  0  0  0  0
    2.6161    1.8922   -5.2229 O   0  0  0  0  0  0  0  0  0  0  0  0
    9.0923    1.4636   -3.4744 C   0  0  0  0  0  0  0  0  0  0  0  0
    9.6883    0.8670   -4.1738 H   0  0  0  0  0  0  0  0  0  0  0  0
    9.3979    2.5079   -3.5775 H   0  0  0  0  0  0  0  0  0  0  0  0
    9.3578    1.1331   -2.4635 H   0  0  0  0  0  0  0  0  0  0  0  0
   -2.7772    0.1731   -1.8671 O   0  0  0  0  0  0  0  0  0  0  0  0
   -3.6665    1.2776   -1.8194 C   0  0  0  0  0  0  0  0  0  0  0  0
   -4.6490    0.8638   -1.5868 H   0  0  0  0  0  0  0  0  0  0  0  0
   -3.7144    1.8008   -2.7836 H   0  0  0  0  0  0  0  0  0  0  0  0
   -3.3826    1.9934   -1.0366 H   0  0  0  0  0  0  0  0  0  0  0  0
  1  6  1  0  0  0  0
  1  7  1  0  0  0  0
  2  1  2  0  0  0  0
  3  4  2  0  0  0  0
  3  2  1  0  0  0  0
  4  5  1  0  0  0  0
  5 10  1  0  0  0  0
  5  6  2  0  0  0  0
  6 31  1  0  0  0  0
  8  2  1  0  0  0  0
  9  4  1  0  0  0  0
 12 11  3  0  0  0  0
 13 19  1  0  0  0  0
 13 14  2  0  0  0  0
 14 20  1  0  0  0  0
 15 14  1  0  0  0  0
 15 27  1  0  0  0  0
 16 15  2  0  0  0  0
 17 18  2  0  0  0  0
 17 16  1  0  0  0  0
 18 13  1  0  0  0  0
 21 16  1  0  0  0  0
 22 17  1  0  0  0  0
 23 18  1  0  0  0  0
 23 24  1  0  0  0  0
 24  3  1  0  0  0  0
 25 23  2  0  0  0  0
 26 23  2  0  0  0  0
 27 30  1  0  0  0  0
 28 27  1  0  0  0  0
 29 27  1  0  0  0  0
 31 32  1  0  0  0  0
 32 33  1  0  0  0  0
 32 35  1  0  0  0  0
 34 32  1  0  0  0  0
M  END
