Coordinates from ORCA-job p-CH3O-Ph-N2-OTs-B3LYP-6-31G_dp-scan-d09-49-n400
 OpenBabel02051708043D

 35 35  0  0  0  0  0  0  0  0999 V2000
   -0.5573    0.0240   -2.7875 C   0  0  0  0  0  0  0  0  0  0  0  0
    0.5537    0.8639   -2.8714 C   0  0  0  0  0  0  0  0  0  0  0  0
    0.4431    1.9835   -2.0915 C   0  0  0  0  0  0  0  0  0  0  0  0
   -0.5664    2.3935   -1.2587 C   0  0  0  0  0  0  0  0  0  0  0  0
   -1.6587    1.5182   -1.1957 C   0  0  0  0  0  0  0  0  0  0  0  0
   -1.6527    0.3360   -1.9580 C   0  0  0  0  0  0  0  0  0  0  0  0
   -0.5890   -0.8915   -3.3684 H   0  0  0  0  0  0  0  0  0  0  0  0
    1.4112    0.6545   -3.5166 H   0  0  0  0  0  0  0  0  0  0  0  0
   -0.5344    3.3156   -0.6925 H   0  0  0  0  0  0  0  0  0  0  0  0
   -2.4937    1.7761   -0.5558 H   0  0  0  0  0  0  0  0  0  0  0  0
    1.8044    3.1630   -2.1536 N   0  0  0  0  0  0  0  0  0  0  0  0
    2.0860    4.2265   -1.9690 N   0  0  0  0  0  0  0  0  0  0  0  0
    5.8078   -0.0255   -4.2636 C   0  0  0  0  0  0  0  0  0  0  0  0
    7.1551   -0.3873   -4.2820 C   0  0  0  0  0  0  0  0  0  0  0  0
    8.1665    0.5772   -4.1791 C   0  0  0  0  0  0  0  0  0  0  0  0
    7.7927    1.9256   -4.0677 C   0  0  0  0  0  0  0  0  0  0  0  0
    6.4517    2.3023   -4.0492 C   0  0  0  0  0  0  0  0  0  0  0  0
    5.4629    1.3207   -4.1442 C   0  0  0  0  0  0  0  0  0  0  0  0
    5.0249   -0.7696   -4.3627 H   0  0  0  0  0  0  0  0  0  0  0  0
    7.4254   -1.4357   -4.3866 H   0  0  0  0  0  0  0  0  0  0  0  0
    8.5634    2.6904   -4.0027 H   0  0  0  0  0  0  0  0  0  0  0  0
    6.1641    3.3467   -3.9845 H   0  0  0  0  0  0  0  0  0  0  0  0
    3.7336    1.8025   -4.0938 S   0  0  0  0  0  0  0  0  0  0  0  0
    3.4078    1.7863   -2.5934 O   0  0  0  0  0  0  0  0  0  0  0  0
    2.9727    0.7335   -4.7956 O   0  0  0  0  0  0  0  0  0  0  0  0
    3.6268    3.1625   -4.6576 O   0  0  0  0  0  0  0  0  0  0  0  0
    9.6240    0.1788   -4.1731 C   0  0  0  0  0  0  0  0  0  0  0  0
   10.0270    0.1665   -3.1523 H   0  0  0  0  0  0  0  0  0  0  0  0
    9.7676   -0.8212   -4.5930 H   0  0  0  0  0  0  0  0  0  0  0  0
   10.2343    0.8801   -4.7519 H   0  0  0  0  0  0  0  0  0  0  0  0
   -2.6585   -0.5689   -1.9649 O   0  0  0  0  0  0  0  0  0  0  0  0
   -3.8058   -0.3304   -1.1561 C   0  0  0  0  0  0  0  0  0  0  0  0
   -4.4689   -1.1801   -1.3236 H   0  0  0  0  0  0  0  0  0  0  0  0
   -4.3189    0.5935   -1.4515 H   0  0  0  0  0  0  0  0  0  0  0  0
   -3.5423   -0.2794   -0.0923 H   0  0  0  0  0  0  0  0  0  0  0  0
  1  6  1  0  0  0  0
  2  1  2  0  0  0  0
  2  3  1  0  0  0  0
  3  4  2  0  0  0  0
  4  5  1  0  0  0  0
  4  9  1  0  0  0  0
  5 10  1  0  0  0  0
  6  5  2  0  0  0  0
  7  1  1  0  0  0  0
  8  2  1  0  0  0  0
 11  3  1  0  0  0  0
 11 12  2  0  0  0  0
 13 18  1  0  0  0  0
 14 13  2  0  0  0  0
 14 15  1  0  0  0  0
 15 27  1  0  0  0  0
 15 16  2  0  0  0  0
 16 17  1  0  0  0  0
 16 21  1  0  0  0  0
 17 22  1  0  0  0  0
 18 23  1  0  0  0  0
 18 17  2  0  0  0  0
 19 13  1  0  0  0  0
 20 14  1  0  0  0  0
 23 24  1  0  0  0  0
 25 23  2  0  0  0  0
 26 23  2  0  0  0  0
 27 28  1  0  0  0  0
 29 27  1  0  0  0  0
 30 27  1  0  0  0  0
 31  6  1  0  0  0  0
 31 32  1  0  0  0  0
 32 35  1  0  0  0  0
 33 32  1  0  0  0  0
 34 32  1  0  0  0  0
M  RAD  2  12   2  24   2
M  END
