Coordinates from ORCA-job p-CH3O-Ph-N2-OTs-B3LYP-6-31G_dp-scan-d09-49-n400
 OpenBabel02051708043D

 35 35  0  0  0  0  0  0  0  0999 V2000
   -0.6470   -0.7292   -2.2084 C   0  0  0  0  0  0  0  0  0  0  0  0
    0.7078   -0.5976   -2.4827 C   0  0  0  0  0  0  0  0  0  0  0  0
    1.2410    0.6748   -2.7029 C   0  0  0  0  0  0  0  0  0  0  0  0
    0.4342    1.8063   -2.6611 C   0  0  0  0  0  0  0  0  0  0  0  0
   -0.9296    1.6759   -2.3857 C   0  0  0  0  0  0  0  0  0  0  0  0
   -1.4740    0.4050   -2.1580 C   0  0  0  0  0  0  0  0  0  0  0  0
   -1.0922   -1.7025   -2.0301 H   0  0  0  0  0  0  0  0  0  0  0  0
    1.3561   -1.4655   -2.5298 H   0  0  0  0  0  0  0  0  0  0  0  0
    0.8720    2.7813   -2.8441 H   0  0  0  0  0  0  0  0  0  0  0  0
   -1.5489    2.5646   -2.3554 H   0  0  0  0  0  0  0  0  0  0  0  0
    4.2961    2.2852   -0.1102 N   0  0  0  0  0  0  0  0  0  0  0  0
    4.8184    1.3321   -0.3115 N   0  0  0  0  0  0  0  0  0  0  0  0
    5.6593   -0.1629   -3.8910 C   0  0  0  0  0  0  0  0  0  0  0  0
    7.0199    0.0125   -3.6597 C   0  0  0  0  0  0  0  0  0  0  0  0
    7.6107    1.2853   -3.7280 C   0  0  0  0  0  0  0  0  0  0  0  0
    6.7995    2.3849   -4.0388 C   0  0  0  0  0  0  0  0  0  0  0  0
    5.4330    2.2311   -4.2718 C   0  0  0  0  0  0  0  0  0  0  0  0
    4.8769    0.9553   -4.1909 C   0  0  0  0  0  0  0  0  0  0  0  0
    5.2061   -1.1477   -3.8525 H   0  0  0  0  0  0  0  0  0  0  0  0
    7.6362   -0.8518   -3.4261 H   0  0  0  0  0  0  0  0  0  0  0  0
    7.2426    3.3749   -4.1045 H   0  0  0  0  0  0  0  0  0  0  0  0
    4.8063    3.0795   -4.5241 H   0  0  0  0  0  0  0  0  0  0  0  0
    3.1368    0.7426   -4.5029 S   0  0  0  0  0  0  0  0  0  0  0  0
    2.6250    0.8190   -2.9100 O   0  0  0  0  0  0  0  0  0  0  0  0
    2.8824   -0.6079   -5.0009 O   0  0  0  0  0  0  0  0  0  0  0  0
    2.6134    1.9086   -5.2121 O   0  0  0  0  0  0  0  0  0  0  0  0
    9.0898    1.4533   -3.4761 C   0  0  0  0  0  0  0  0  0  0  0  0
    9.6812    0.8666   -4.1880 H   0  0  0  0  0  0  0  0  0  0  0  0
    9.3964    2.4986   -3.5653 H   0  0  0  0  0  0  0  0  0  0  0  0
    9.3605    1.1069   -2.4720 H   0  0  0  0  0  0  0  0  0  0  0  0
   -2.7874    0.1635   -1.8791 O   0  0  0  0  0  0  0  0  0  0  0  0
   -3.6785    1.2664   -1.8296 C   0  0  0  0  0  0  0  0  0  0  0  0
   -4.6610    0.8502   -1.6009 H   0  0  0  0  0  0  0  0  0  0  0  0
   -3.7250    1.7929   -2.7921 H   0  0  0  0  0  0  0  0  0  0  0  0
   -3.3977    1.9799   -1.0437 H   0  0  0  0  0  0  0  0  0  0  0  0
  1  6  1  0  0  0  0
  1  7  1  0  0  0  0
  2  1  2  0  0  0  0
  3  4  2  0  0  0  0
  3  2  1  0  0  0  0
  4  5  1  0  0  0  0
  5 10  1  0  0  0  0
  5  6  2  0  0  0  0
  6 31  1  0  0  0  0
  8  2  1  0  0  0  0
  9  4  1  0  0  0  0
 12 11  3  0  0  0  0
 13 19  1  0  0  0  0
 13 14  2  0  0  0  0
 14 20  1  0  0  0  0
 15 14  1  0  0  0  0
 15 27  1  0  0  0  0
 16 15  2  0  0  0  0
 17 18  2  0  0  0  0
 17 16  1  0  0  0  0
 18 13  1  0  0  0  0
 21 16  1  0  0  0  0
 22 17  1  0  0  0  0
 23 18  1  0  0  0  0
 23 24  1  0  0  0  0
 24  3  1  0  0  0  0
 25 23  2  0  0  0  0
 26 23  2  0  0  0  0
 27 30  1  0  0  0  0
 28 27  1  0  0  0  0
 29 27  1  0  0  0  0
 31 32  1  0  0  0  0
 32 33  1  0  0  0  0
 32 35  1  0  0  0  0
 34 32  1  0  0  0  0
M  END
