Coordinates from ORCA-job p-CH3O-Ph-N2-OTs-B3LYP-6-31G_dp-scan-d09-49-n400
 OpenBabel02051708043D

 35 34  0  0  0  0  0  0  0  0999 V2000
   -0.5568   -0.0381   -2.7979 C   0  0  0  0  0  0  0  0  0  0  0  0
    0.4902    0.7389   -2.2940 C   0  0  0  0  0  0  0  0  0  0  0  0
    0.2047    1.6489   -1.4703 C   0  0  0  0  0  0  0  0  0  0  0  0
   -0.9314    2.1374   -0.8922 C   0  0  0  0  0  0  0  0  0  0  0  0
   -2.0190    1.3749   -1.3780 C   0  0  0  0  0  0  0  0  0  0  0  0
   -1.8386    0.3177   -2.3042 C   0  0  0  0  0  0  0  0  0  0  0  0
   -0.4601   -0.8494   -3.5120 H   0  0  0  0  0  0  0  0  0  0  0  0
    2.3631    0.5711   -2.8767 H   0  0  0  0  0  0  0  0  0  0  0  0
   -1.0341    2.9529   -0.1879 H   0  0  0  0  0  0  0  0  0  0  0  0
   -3.0110    1.6220   -1.0180 H   0  0  0  0  0  0  0  0  0  0  0  0
    2.2080    3.4101    0.0401 N   0  0  0  0  0  0  0  0  0  0  0  0
    3.2584    3.4933    0.3729 N   0  0  0  0  0  0  0  0  0  0  0  0
    6.4545    1.5673   -2.9348 C   0  0  0  0  0  0  0  0  0  0  0  0
    7.7886    1.2097   -3.1150 C   0  0  0  0  0  0  0  0  0  0  0  0
    8.2397    0.6784   -4.3331 C   0  0  0  0  0  0  0  0  0  0  0  0
    7.3178    0.5229   -5.3787 C   0  0  0  0  0  0  0  0  0  0  0  0
    5.9791    0.8757   -5.2182 C   0  0  0  0  0  0  0  0  0  0  0  0
    5.5594    1.3902   -3.9912 C   0  0  0  0  0  0  0  0  0  0  0  0
    6.1084    1.9927   -1.9991 H   0  0  0  0  0  0  0  0  0  0  0  0
    8.4933    1.3519   -2.2994 H   0  0  0  0  0  0  0  0  0  0  0  0
    7.6543    0.1265   -6.3331 H   0  0  0  0  0  0  0  0  0  0  0  0
    5.2687    0.7704   -6.0312 H   0  0  0  0  0  0  0  0  0  0  0  0
    3.8514    1.8556   -3.7774 S   0  0  0  0  0  0  0  0  0  0  0  0
    3.7468    2.8608   -2.7160 O   0  0  0  0  0  0  0  0  0  0  0  0
    3.2925    0.4363   -3.2030 O   0  0  0  0  0  0  0  0  0  0  0  0
    3.2541    2.1163   -5.0866 O   0  0  0  0  0  0  0  0  0  0  0  0
    9.6824    0.2673   -4.5073 C   0  0  0  0  0  0  0  0  0  0  0  0
   10.3546    0.9095   -3.9308 H   0  0  0  0  0  0  0  0  0  0  0  0
    9.8397   -0.7621   -4.1613 H   0  0  0  0  0  0  0  0  0  0  0  0
    9.9866    0.3084   -5.5572 H   0  0  0  0  0  0  0  0  0  0  0  0
   -2.8637   -0.4358   -2.7944 O   0  0  0  0  0  0  0  0  0  0  0  0
   -4.1906   -0.1424   -2.3840 C   0  0  0  0  0  0  0  0  0  0  0  0
   -4.8313   -0.8554   -2.9046 H   0  0  0  0  0  0  0  0  0  0  0  0
   -4.4836    0.8776   -2.6651 H   0  0  0  0  0  0  0  0  0  0  0  0
   -4.3160   -0.2699   -1.3005 H   0  0  0  0  0  0  0  0  0  0  0  0
  1  6  2  0  0  0  0
  1  2  1  0  0  0  0
  2  3  2  0  0  0  0
  3  4  1  0  0  0  0
  4  9  1  0  0  0  0
  5 10  1  0  0  0  0
  5  4  2  0  0  0  0
  6  5  1  0  0  0  0
  7  1  1  0  0  0  0
 11 12  3  0  0  0  0
 13 19  1  0  0  0  0
 14 13  1  0  0  0  0
 14 20  1  0  0  0  0
 15 14  2  0  0  0  0
 16 17  2  0  0  0  0
 16 15  1  0  0  0  0
 17 18  1  0  0  0  0
 18 23  1  0  0  0  0
 18 13  2  0  0  0  0
 21 16  1  0  0  0  0
 22 17  1  0  0  0  0
 23 25  1  0  0  0  0
 23 24  2  0  0  0  0
 25  8  1  0  0  0  0
 26 23  2  0  0  0  0
 27 15  1  0  0  0  0
 27 29  1  0  0  0  0
 27 28  1  0  0  0  0
 30 27  1  0  0  0  0
 31 32  1  0  0  0  0
 31  6  1  0  0  0  0
 32 35  1  0  0  0  0
 33 32  1  0  0  0  0
 34 32  1  0  0  0  0
M  RAD  2   2   2   3   2
M  END
