Coordinates from ORCA-job p-CH3O-Ph-N2-OTs-B3LYP-6-31G_dp-scan-d09-49-n400
 OpenBabel02051708043D

 35 35  0  0  0  0  0  0  0  0999 V2000
   -0.6357   -0.7219   -2.1922 C   0  0  0  0  0  0  0  0  0  0  0  0
    0.7183   -0.5953   -2.4727 C   0  0  0  0  0  0  0  0  0  0  0  0
    1.2535    0.6743   -2.7040 C   0  0  0  0  0  0  0  0  0  0  0  0
    0.4495    1.8079   -2.6668 C   0  0  0  0  0  0  0  0  0  0  0  0
   -0.9136    1.6825   -2.3851 C   0  0  0  0  0  0  0  0  0  0  0  0
   -1.4600    0.4145   -2.1465 C   0  0  0  0  0  0  0  0  0  0  0  0
   -1.0823   -1.6930   -2.0053 H   0  0  0  0  0  0  0  0  0  0  0  0
    1.3646   -1.4649   -2.5162 H   0  0  0  0  0  0  0  0  0  0  0  0
    0.8888    2.7806   -2.8582 H   0  0  0  0  0  0  0  0  0  0  0  0
   -1.5307    2.5728   -2.3585 H   0  0  0  0  0  0  0  0  0  0  0  0
    4.1146    2.2162   -0.1427 N   0  0  0  0  0  0  0  0  0  0  0  0
    4.6751    1.2799   -0.3190 N   0  0  0  0  0  0  0  0  0  0  0  0
    5.6744   -0.1685   -3.9110 C   0  0  0  0  0  0  0  0  0  0  0  0
    7.0336    0.0144   -3.6766 C   0  0  0  0  0  0  0  0  0  0  0  0
    7.6153    1.2919   -3.7318 C   0  0  0  0  0  0  0  0  0  0  0  0
    6.7970    2.3884   -4.0347 C   0  0  0  0  0  0  0  0  0  0  0  0
    5.4321    2.2271   -4.2714 C   0  0  0  0  0  0  0  0  0  0  0  0
    4.8847    0.9469   -4.2020 C   0  0  0  0  0  0  0  0  0  0  0  0
    5.2277   -1.1565   -3.8818 H   0  0  0  0  0  0  0  0  0  0  0  0
    7.6557   -0.8477   -3.4502 H   0  0  0  0  0  0  0  0  0  0  0  0
    7.2332    3.3821   -4.0909 H   0  0  0  0  0  0  0  0  0  0  0  0
    4.8002    3.0734   -4.5177 H   0  0  0  0  0  0  0  0  0  0  0  0
    3.1452    0.7261   -4.5110 S   0  0  0  0  0  0  0  0  0  0  0  0
    2.6370    0.8137   -2.9173 O   0  0  0  0  0  0  0  0  0  0  0  0
    2.8941   -0.6289   -4.9981 O   0  0  0  0  0  0  0  0  0  0  0  0
    2.6164    1.8850   -5.2277 O   0  0  0  0  0  0  0  0  0  0  0  0
    9.0922    1.4686   -3.4721 C   0  0  0  0  0  0  0  0  0  0  0  0
    9.6906    0.8697   -4.1675 H   0  0  0  0  0  0  0  0  0  0  0  0
    9.3968    2.5129   -3.5788 H   0  0  0  0  0  0  0  0  0  0  0  0
    9.3556    1.1429   -2.4591 H   0  0  0  0  0  0  0  0  0  0  0  0
   -2.7727    0.1779   -1.8608 O   0  0  0  0  0  0  0  0  0  0  0  0
   -3.6612    1.2832   -1.8155 C   0  0  0  0  0  0  0  0  0  0  0  0
   -4.6438    0.8708   -1.5805 H   0  0  0  0  0  0  0  0  0  0  0  0
   -3.7100    1.8034   -2.7813 H   0  0  0  0  0  0  0  0  0  0  0  0
   -3.3760    2.0013   -1.0353 H   0  0  0  0  0  0  0  0  0  0  0  0
  1  6  1  0  0  0  0
  1  7  1  0  0  0  0
  2  1  2  0  0  0  0
  3  4  2  0  0  0  0
  3  2  1  0  0  0  0
  4  5  1  0  0  0  0
  5 10  1  0  0  0  0
  5  6  2  0  0  0  0
  6 31  1  0  0  0  0
  8  2  1  0  0  0  0
  9  4  1  0  0  0  0
 12 11  3  0  0  0  0
 13 19  1  0  0  0  0
 13 14  2  0  0  0  0
 14 20  1  0  0  0  0
 15 14  1  0  0  0  0
 15 27  1  0  0  0  0
 16 15  2  0  0  0  0
 17 18  2  0  0  0  0
 17 16  1  0  0  0  0
 18 13  1  0  0  0  0
 21 16  1  0  0  0  0
 22 17  1  0  0  0  0
 23 18  1  0  0  0  0
 23 24  1  0  0  0  0
 24  3  1  0  0  0  0
 25 23  2  0  0  0  0
 26 23  2  0  0  0  0
 27 30  1  0  0  0  0
 28 27  1  0  0  0  0
 29 27  1  0  0  0  0
 31 32  1  0  0  0  0
 32 33  1  0  0  0  0
 32 35  1  0  0  0  0
 34 32  1  0  0  0  0
M  END
