Coordinates from ORCA-job p-CH3O-Ph-N2-OTs-B3LYP-6-31G_dp-scan-d09-49-n400
 OpenBabel02051708043D

 35 35  0  0  0  0  0  0  0  0999 V2000
   -0.6569   -0.7312   -2.1993 C   0  0  0  0  0  0  0  0  0  0  0  0
    0.6976   -0.5948   -2.4730 C   0  0  0  0  0  0  0  0  0  0  0  0
    1.2237    0.6778   -2.7075 C   0  0  0  0  0  0  0  0  0  0  0  0
    0.4106    1.8049   -2.6805 C   0  0  0  0  0  0  0  0  0  0  0  0
   -0.9530    1.6698   -2.4061 C   0  0  0  0  0  0  0  0  0  0  0  0
   -1.4906    0.3988   -2.1640 C   0  0  0  0  0  0  0  0  0  0  0  0
   -1.0966   -1.7050   -2.0101 H   0  0  0  0  0  0  0  0  0  0  0  0
    1.3511   -1.4594   -2.5087 H   0  0  0  0  0  0  0  0  0  0  0  0
    0.8429    2.7802   -2.8748 H   0  0  0  0  0  0  0  0  0  0  0  0
   -1.5774    2.5554   -2.3876 H   0  0  0  0  0  0  0  0  0  0  0  0
    4.6075    2.3334   -0.1040 N   0  0  0  0  0  0  0  0  0  0  0  0
    5.0675    1.3549   -0.3337 N   0  0  0  0  0  0  0  0  0  0  0  0
    5.6401   -0.1608   -3.8916 C   0  0  0  0  0  0  0  0  0  0  0  0
    7.0001    0.0099   -3.6535 C   0  0  0  0  0  0  0  0  0  0  0  0
    7.5942    1.2815   -3.7121 C   0  0  0  0  0  0  0  0  0  0  0  0
    6.7869    2.3850   -4.0195 C   0  0  0  0  0  0  0  0  0  0  0  0
    5.4211    2.2359   -4.2592 C   0  0  0  0  0  0  0  0  0  0  0  0
    4.8617    0.9610   -4.1885 C   0  0  0  0  0  0  0  0  0  0  0  0
    5.1842   -1.1446   -3.8601 H   0  0  0  0  0  0  0  0  0  0  0  0
    7.6131   -0.8572   -3.4215 H   0  0  0  0  0  0  0  0  0  0  0  0
    7.2327    3.3743   -4.0770 H   0  0  0  0  0  0  0  0  0  0  0  0
    4.7974    3.0874   -4.5085 H   0  0  0  0  0  0  0  0  0  0  0  0
    3.1215    0.7543   -4.5050 S   0  0  0  0  0  0  0  0  0  0  0  0
    2.6077    0.8263   -2.9130 O   0  0  0  0  0  0  0  0  0  0  0  0
    2.8641   -0.5934   -5.0087 O   0  0  0  0  0  0  0  0  0  0  0  0
    2.6031    1.9246   -5.2109 O   0  0  0  0  0  0  0  0  0  0  0  0
    9.0735    1.4441   -3.4569 C   0  0  0  0  0  0  0  0  0  0  0  0
    9.6645    0.8946   -4.1986 H   0  0  0  0  0  0  0  0  0  0  0  0
    9.3754    2.4937   -3.4982 H   0  0  0  0  0  0  0  0  0  0  0  0
    9.3497    1.0512   -2.4719 H   0  0  0  0  0  0  0  0  0  0  0  0
   -2.8030    0.1530   -1.8844 O   0  0  0  0  0  0  0  0  0  0  0  0
   -3.7003    1.2515   -1.8484 C   0  0  0  0  0  0  0  0  0  0  0  0
   -4.6808    0.8324   -1.6165 H   0  0  0  0  0  0  0  0  0  0  0  0
   -3.7483    1.7671   -2.8167 H   0  0  0  0  0  0  0  0  0  0  0  0
   -3.4245    1.9751   -1.0700 H   0  0  0  0  0  0  0  0  0  0  0  0
  1  6  1  0  0  0  0
  1  7  1  0  0  0  0
  2  1  2  0  0  0  0
  3  4  2  0  0  0  0
  3  2  1  0  0  0  0
  4  5  1  0  0  0  0
  5 10  1  0  0  0  0
  5  6  2  0  0  0  0
  6 31  1  0  0  0  0
  8  2  1  0  0  0  0
  9  4  1  0  0  0  0
 12 11  3  0  0  0  0
 13 19  1  0  0  0  0
 13 14  2  0  0  0  0
 14 20  1  0  0  0  0
 15 14  1  0  0  0  0
 15 27  1  0  0  0  0
 16 15  2  0  0  0  0
 17 18  2  0  0  0  0
 17 16  1  0  0  0  0
 18 13  1  0  0  0  0
 21 16  1  0  0  0  0
 22 17  1  0  0  0  0
 23 18  1  0  0  0  0
 23 24  1  0  0  0  0
 24  3  1  0  0  0  0
 25 23  2  0  0  0  0
 26 23  2  0  0  0  0
 27 30  1  0  0  0  0
 28 27  1  0  0  0  0
 29 27  1  0  0  0  0
 31 32  1  0  0  0  0
 32 33  1  0  0  0  0
 32 35  1  0  0  0  0
 34 32  1  0  0  0  0
M  END
