Coordinates from ORCA-job p-CH3O-Ph-N2-OTs-B3LYP-6-31G_dp-scan-d09-49-n400
 OpenBabel02051708043D

 35 34  0  0  0  0  0  0  0  0999 V2000
   -0.4756    0.0859   -2.7754 C   0  0  0  0  0  0  0  0  0  0  0  0
    0.5343    0.8734   -2.2099 C   0  0  0  0  0  0  0  0  0  0  0  0
    0.1789    1.7274   -1.3513 C   0  0  0  0  0  0  0  0  0  0  0  0
   -0.9887    2.1422   -0.7811 C   0  0  0  0  0  0  0  0  0  0  0  0
   -2.0329    1.3644   -1.3325 C   0  0  0  0  0  0  0  0  0  0  0  0
   -1.7842    0.3630   -2.3035 C   0  0  0  0  0  0  0  0  0  0  0  0
   -0.3271   -0.6844   -3.5255 H   0  0  0  0  0  0  0  0  0  0  0  0
    2.3709    0.6971   -2.7781 H   0  0  0  0  0  0  0  0  0  0  0  0
   -1.1397    2.9170   -0.0405 H   0  0  0  0  0  0  0  0  0  0  0  0
   -3.0429    1.5557   -0.9888 H   0  0  0  0  0  0  0  0  0  0  0  0
    1.9969    3.2790   -0.0225 N   0  0  0  0  0  0  0  0  0  0  0  0
    3.0566    3.3613    0.2803 N   0  0  0  0  0  0  0  0  0  0  0  0
    6.4935    1.6402   -2.9627 C   0  0  0  0  0  0  0  0  0  0  0  0
    7.8166    1.2505   -3.1587 C   0  0  0  0  0  0  0  0  0  0  0  0
    8.2240    0.6402   -4.3547 C   0  0  0  0  0  0  0  0  0  0  0  0
    7.2696    0.4382   -5.3628 C   0  0  0  0  0  0  0  0  0  0  0  0
    5.9418    0.8223   -5.1861 C   0  0  0  0  0  0  0  0  0  0  0  0
    5.5655    1.4158   -3.9806 C   0  0  0  0  0  0  0  0  0  0  0  0
    6.1808    2.1256   -2.0446 H   0  0  0  0  0  0  0  0  0  0  0  0
    8.5468    1.4295   -2.3735 H   0  0  0  0  0  0  0  0  0  0  0  0
    7.5720   -0.0194   -6.3012 H   0  0  0  0  0  0  0  0  0  0  0  0
    5.2066    0.6809   -5.9712 H   0  0  0  0  0  0  0  0  0  0  0  0
    3.8715    1.9219   -3.7471 S   0  0  0  0  0  0  0  0  0  0  0  0
    3.8134    2.9783   -2.7326 O   0  0  0  0  0  0  0  0  0  0  0  0
    3.3036    0.5423   -3.0952 O   0  0  0  0  0  0  0  0  0  0  0  0
    3.2458    2.1337   -5.0521 O   0  0  0  0  0  0  0  0  0  0  0  0
    9.6543    0.1946   -4.5453 C   0  0  0  0  0  0  0  0  0  0  0  0
   10.3498    0.8300   -3.9895 H   0  0  0  0  0  0  0  0  0  0  0  0
    9.7944   -0.8331   -4.1869 H   0  0  0  0  0  0  0  0  0  0  0  0
    9.9425    0.2129   -5.6006 H   0  0  0  0  0  0  0  0  0  0  0  0
   -2.7631   -0.4059   -2.8589 O   0  0  0  0  0  0  0  0  0  0  0  0
   -4.1106   -0.1919   -2.4677 C   0  0  0  0  0  0  0  0  0  0  0  0
   -4.7071   -0.9040   -3.0396 H   0  0  0  0  0  0  0  0  0  0  0  0
   -4.4425    0.8276   -2.7042 H   0  0  0  0  0  0  0  0  0  0  0  0
   -4.2553   -0.3805   -1.3956 H   0  0  0  0  0  0  0  0  0  0  0  0
  1  6  2  0  0  0  0
  1  2  1  0  0  0  0
  2  3  2  0  0  0  0
  3  4  1  0  0  0  0
  4  9  1  0  0  0  0
  5 10  1  0  0  0  0
  5  4  2  0  0  0  0
  6  5  1  0  0  0  0
  7  1  1  0  0  0  0
 11 12  3  0  0  0  0
 13 19  1  0  0  0  0
 14 13  1  0  0  0  0
 14 20  1  0  0  0  0
 15 14  2  0  0  0  0
 16 17  2  0  0  0  0
 16 15  1  0  0  0  0
 17 18  1  0  0  0  0
 18 23  1  0  0  0  0
 18 13  2  0  0  0  0
 21 16  1  0  0  0  0
 22 17  1  0  0  0  0
 23 25  1  0  0  0  0
 23 24  2  0  0  0  0
 25  8  1  0  0  0  0
 26 23  2  0  0  0  0
 27 15  1  0  0  0  0
 27 29  1  0  0  0  0
 27 28  1  0  0  0  0
 30 27  1  0  0  0  0
 31 32  1  0  0  0  0
 31  6  1  0  0  0  0
 32 35  1  0  0  0  0
 33 32  1  0  0  0  0
 34 32  1  0  0  0  0
M  RAD  2   2   2   3   2
M  END
