Coordinates from ORCA-job p-CH3O-Ph-N2-OTs-B3LYP-6-31G_dp-scan-d09-49-n400
 OpenBabel02051708043D

 35 35  0  0  0  0  0  0  0  0999 V2000
   -0.6658   -0.7327   -2.1930 C   0  0  0  0  0  0  0  0  0  0  0  0
    0.6884   -0.5917   -2.4658 C   0  0  0  0  0  0  0  0  0  0  0  0
    1.2085    0.6815   -2.7106 C   0  0  0  0  0  0  0  0  0  0  0  0
    0.3896    1.8046   -2.6950 C   0  0  0  0  0  0  0  0  0  0  0  0
   -0.9739    1.6648   -2.4220 C   0  0  0  0  0  0  0  0  0  0  0  0
   -1.5053    0.3932   -2.1693 C   0  0  0  0  0  0  0  0  0  0  0  0
   -1.1007   -1.7070   -1.9958 H   0  0  0  0  0  0  0  0  0  0  0  0
    1.3466   -1.4531   -2.4926 H   0  0  0  0  0  0  0  0  0  0  0  0
    0.8171    2.7804   -2.8974 H   0  0  0  0  0  0  0  0  0  0  0  0
   -1.6028    2.5473   -2.4125 H   0  0  0  0  0  0  0  0  0  0  0  0
    4.8756    2.3653   -0.1116 N   0  0  0  0  0  0  0  0  0  0  0  0
    5.2843    1.3668   -0.3520 N   0  0  0  0  0  0  0  0  0  0  0  0
    5.6233   -0.1576   -3.8906 C   0  0  0  0  0  0  0  0  0  0  0  0
    6.9830    0.0085   -3.6478 C   0  0  0  0  0  0  0  0  0  0  0  0
    7.5808    1.2788   -3.6993 C   0  0  0  0  0  0  0  0  0  0  0  0
    6.7772    2.3857   -4.0040 C   0  0  0  0  0  0  0  0  0  0  0  0
    5.4116    2.2412   -4.2483 C   0  0  0  0  0  0  0  0  0  0  0  0
    4.8487    0.9675   -4.1848 C   0  0  0  0  0  0  0  0  0  0  0  0
    5.1646   -1.1402   -3.8644 H   0  0  0  0  0  0  0  0  0  0  0  0
    7.5931   -0.8612   -3.4175 H   0  0  0  0  0  0  0  0  0  0  0  0
    7.2257    3.3741   -4.0557 H   0  0  0  0  0  0  0  0  0  0  0  0
    4.7910    3.0955   -4.4954 H   0  0  0  0  0  0  0  0  0  0  0  0
    3.1085    0.7664   -4.5055 S   0  0  0  0  0  0  0  0  0  0  0  0
    2.5923    0.8343   -2.9145 O   0  0  0  0  0  0  0  0  0  0  0  0
    2.8485   -0.5788   -5.0145 O   0  0  0  0  0  0  0  0  0  0  0  0
    2.5947    1.9405   -5.2085 O   0  0  0  0  0  0  0  0  0  0  0  0
    9.0599    1.4362   -3.4404 C   0  0  0  0  0  0  0  0  0  0  0  0
    9.6511    0.8986   -4.1908 H   0  0  0  0  0  0  0  0  0  0  0  0
    9.3625    2.4862   -3.4646 H   0  0  0  0  0  0  0  0  0  0  0  0
    9.3355    1.0270   -2.4619 H   0  0  0  0  0  0  0  0  0  0  0  0
   -2.8169    0.1432   -1.8898 O   0  0  0  0  0  0  0  0  0  0  0  0
   -3.7199    1.2374   -1.8646 C   0  0  0  0  0  0  0  0  0  0  0  0
   -4.6987    0.8153   -1.6308 H   0  0  0  0  0  0  0  0  0  0  0  0
   -3.7688    1.7446   -2.8372 H   0  0  0  0  0  0  0  0  0  0  0  0
   -3.4490    1.9689   -1.0918 H   0  0  0  0  0  0  0  0  0  0  0  0
  1  6  1  0  0  0  0
  1  7  1  0  0  0  0
  2  1  2  0  0  0  0
  3  4  2  0  0  0  0
  3  2  1  0  0  0  0
  4  5  1  0  0  0  0
  5 10  1  0  0  0  0
  5  6  2  0  0  0  0
  6 31  1  0  0  0  0
  8  2  1  0  0  0  0
  9  4  1  0  0  0  0
 12 11  3  0  0  0  0
 13 19  1  0  0  0  0
 13 14  2  0  0  0  0
 14 20  1  0  0  0  0
 15 14  1  0  0  0  0
 15 27  1  0  0  0  0
 16 15  2  0  0  0  0
 17 18  2  0  0  0  0
 17 16  1  0  0  0  0
 18 13  1  0  0  0  0
 21 16  1  0  0  0  0
 22 17  1  0  0  0  0
 23 18  1  0  0  0  0
 23 24  1  0  0  0  0
 24  3  1  0  0  0  0
 25 23  2  0  0  0  0
 26 23  2  0  0  0  0
 27 30  1  0  0  0  0
 28 27  1  0  0  0  0
 29 27  1  0  0  0  0
 31 32  1  0  0  0  0
 32 33  1  0  0  0  0
 32 35  1  0  0  0  0
 34 32  1  0  0  0  0
M  END
