Coordinates from ORCA-job p-CH3O-Ph-N2-OTs-B3LYP-6-31G_dp-scan-d09-49-n400
 OpenBabel02051708043D

 35 35  0  0  0  0  0  0  0  0999 V2000
   -0.6576   -0.7313   -2.1897 C   0  0  0  0  0  0  0  0  0  0  0  0
    0.6958   -0.5963   -2.4693 C   0  0  0  0  0  0  0  0  0  0  0  0
    1.2204    0.6745   -2.7166 C   0  0  0  0  0  0  0  0  0  0  0  0
    0.4065    1.8013   -2.6968 C   0  0  0  0  0  0  0  0  0  0  0  0
   -0.9561    1.6675   -2.4168 C   0  0  0  0  0  0  0  0  0  0  0  0
   -1.4919    0.3983   -2.1615 C   0  0  0  0  0  0  0  0  0  0  0  0
   -1.0958   -1.7037   -1.9904 H   0  0  0  0  0  0  0  0  0  0  0  0
    1.3500   -1.4606   -2.4997 H   0  0  0  0  0  0  0  0  0  0  0  0
    0.8372    2.7752   -2.9014 H   0  0  0  0  0  0  0  0  0  0  0  0
   -1.5810    2.5528   -2.4042 H   0  0  0  0  0  0  0  0  0  0  0  0
    4.7229    2.3369   -0.1142 N   0  0  0  0  0  0  0  0  0  0  0  0
    5.1609    1.3502   -0.3517 N   0  0  0  0  0  0  0  0  0  0  0  0
    5.6320   -0.1616   -3.9023 C   0  0  0  0  0  0  0  0  0  0  0  0
    6.9897    0.0102   -3.6524 C   0  0  0  0  0  0  0  0  0  0  0  0
    7.5823    1.2831   -3.7003 C   0  0  0  0  0  0  0  0  0  0  0  0
    6.7758    2.3865   -4.0099 C   0  0  0  0  0  0  0  0  0  0  0  0
    5.4122    2.2363   -4.2612 C   0  0  0  0  0  0  0  0  0  0  0  0
    4.8543    0.9603   -4.2003 C   0  0  0  0  0  0  0  0  0  0  0  0
    5.1773   -1.1462   -3.8782 H   0  0  0  0  0  0  0  0  0  0  0  0
    7.6022   -0.8568   -3.4188 H   0  0  0  0  0  0  0  0  0  0  0  0
    7.2204    3.3769   -4.0590 H   0  0  0  0  0  0  0  0  0  0  0  0
    4.7890    3.0880   -4.5112 H   0  0  0  0  0  0  0  0  0  0  0  0
    3.1148    0.7543   -4.5196 S   0  0  0  0  0  0  0  0  0  0  0  0
    2.6040    0.8208   -2.9269 O   0  0  0  0  0  0  0  0  0  0  0  0
    2.8567   -0.5915   -5.0282 O   0  0  0  0  0  0  0  0  0  0  0  0
    2.5960    1.9271   -5.2211 O   0  0  0  0  0  0  0  0  0  0  0  0
    9.0591    1.4470   -3.4320 C   0  0  0  0  0  0  0  0  0  0  0  0
    9.6573    0.9106   -4.1776 H   0  0  0  0  0  0  0  0  0  0  0  0
    9.3575    2.4982   -3.4559 H   0  0  0  0  0  0  0  0  0  0  0  0
    9.3299    1.0405   -2.4510 H   0  0  0  0  0  0  0  0  0  0  0  0
   -2.8032    0.1541   -1.8753 O   0  0  0  0  0  0  0  0  0  0  0  0
   -3.7012    1.2523   -1.8460 C   0  0  0  0  0  0  0  0  0  0  0  0
   -4.6807    0.8345   -1.6076 H   0  0  0  0  0  0  0  0  0  0  0  0
   -3.7524    1.7597   -2.8184 H   0  0  0  0  0  0  0  0  0  0  0  0
   -3.4236    1.9826   -1.0745 H   0  0  0  0  0  0  0  0  0  0  0  0
  1  6  1  0  0  0  0
  1  7  1  0  0  0  0
  2  1  2  0  0  0  0
  3  4  2  0  0  0  0
  3  2  1  0  0  0  0
  4  5  1  0  0  0  0
  5 10  1  0  0  0  0
  5  6  2  0  0  0  0
  6 31  1  0  0  0  0
  8  2  1  0  0  0  0
  9  4  1  0  0  0  0
 12 11  3  0  0  0  0
 13 19  1  0  0  0  0
 13 14  2  0  0  0  0
 14 20  1  0  0  0  0
 15 14  1  0  0  0  0
 15 27  1  0  0  0  0
 16 15  2  0  0  0  0
 17 18  2  0  0  0  0
 17 16  1  0  0  0  0
 18 13  1  0  0  0  0
 21 16  1  0  0  0  0
 22 17  1  0  0  0  0
 23 18  1  0  0  0  0
 23 24  1  0  0  0  0
 24  3  1  0  0  0  0
 25 23  2  0  0  0  0
 26 23  2  0  0  0  0
 27 30  1  0  0  0  0
 28 27  1  0  0  0  0
 29 27  1  0  0  0  0
 31 32  1  0  0  0  0
 32 33  1  0  0  0  0
 32 35  1  0  0  0  0
 34 32  1  0  0  0  0
M  END
