Coordinates from ORCA-job p-CH3O-Ph-N2-OTs-B3LYP-6-31G_dp-scan-d09-49-n400
 OpenBabel02051708043D

 35 35  0  0  0  0  0  0  0  0999 V2000
   -0.4311    0.0068   -2.5702 C   0  0  0  0  0  0  0  0  0  0  0  0
    0.4234    0.9535   -3.1232 C   0  0  0  0  0  0  0  0  0  0  0  0
    0.1032    2.2556   -2.7877 C   0  0  0  0  0  0  0  0  0  0  0  0
   -0.9256    2.7184   -1.9956 C   0  0  0  0  0  0  0  0  0  0  0  0
   -1.7538    1.7365   -1.4504 C   0  0  0  0  0  0  0  0  0  0  0  0
   -1.5066    0.3804   -1.7378 C   0  0  0  0  0  0  0  0  0  0  0  0
   -0.2706   -1.0478   -2.7669 H   0  0  0  0  0  0  0  0  0  0  0  0
    1.2783    0.6938   -3.7547 H   0  0  0  0  0  0  0  0  0  0  0  0
   -1.0817    3.7722   -1.8008 H   0  0  0  0  0  0  0  0  0  0  0  0
   -2.5762    2.0382   -0.8145 H   0  0  0  0  0  0  0  0  0  0  0  0
    1.0534    3.4665   -3.4405 N   0  0  0  0  0  0  0  0  0  0  0  0
    1.7773    4.1341   -3.9655 N   0  0  0  0  0  0  0  0  0  0  0  0
    5.9690    0.5023   -5.0980 C   0  0  0  0  0  0  0  0  0  0  0  0
    7.3183    0.1522   -5.1060 C   0  0  0  0  0  0  0  0  0  0  0  0
    8.1645    0.5004   -4.0429 C   0  0  0  0  0  0  0  0  0  0  0  0
    7.6201    1.2138   -2.9655 C   0  0  0  0  0  0  0  0  0  0  0  0
    6.2725    1.5715   -2.9451 C   0  0  0  0  0  0  0  0  0  0  0  0
    5.4505    1.2138   -4.0145 C   0  0  0  0  0  0  0  0  0  0  0  0
    5.3126    0.2201   -5.9144 H   0  0  0  0  0  0  0  0  0  0  0  0
    7.7220   -0.4025   -5.9504 H   0  0  0  0  0  0  0  0  0  0  0  0
    8.2603    1.4914   -2.1309 H   0  0  0  0  0  0  0  0  0  0  0  0
    5.8473    2.1119   -2.1056 H   0  0  0  0  0  0  0  0  0  0  0  0
    3.7281    1.7197   -4.0162 S   0  0  0  0  0  0  0  0  0  0  0  0
    3.3077    1.8417   -2.5917 O   0  0  0  0  0  0  0  0  0  0  0  0
    2.9854    0.6579   -4.7607 O   0  0  0  0  0  0  0  0  0  0  0  0
    3.6918    3.0520   -4.7224 O   0  0  0  0  0  0  0  0  0  0  0  0
    9.6184    0.0880   -4.0439 C   0  0  0  0  0  0  0  0  0  0  0  0
    9.7485   -0.9068   -3.5981 H   0  0  0  0  0  0  0  0  0  0  0  0
   10.0216    0.0415   -5.0605 H   0  0  0  0  0  0  0  0  0  0  0  0
   10.2335    0.7848   -3.4661 H   0  0  0  0  0  0  0  0  0  0  0  0
   -2.2488   -0.6417   -1.2621 O   0  0  0  0  0  0  0  0  0  0  0  0
   -3.3490   -0.3592   -0.4007 C   0  0  0  0  0  0  0  0  0  0  0  0
   -3.7804   -1.3270   -0.1453 H   0  0  0  0  0  0  0  0  0  0  0  0
   -4.1049    0.2537   -0.9069 H   0  0  0  0  0  0  0  0  0  0  0  0
   -3.0186    0.1441    0.5156 H   0  0  0  0  0  0  0  0  0  0  0  0
  1  6  2  0  0  0  0
  2  3  2  0  0  0  0
  2  1  1  0  0  0  0
  3  4  1  0  0  0  0
  4  9  1  0  0  0  0
  4  5  2  0  0  0  0
  5 10  1  0  0  0  0
  6  5  1  0  0  0  0
  6 31  1  0  0  0  0
  7  1  1  0  0  0  0
  8  2  1  0  0  0  0
 11  3  1  0  0  0  0
 12 11  1  0  0  0  0
 13 18  1  0  0  0  0
 14 13  2  0  0  0  0
 14 15  1  0  0  0  0
 15 16  2  0  0  0  0
 16 17  1  0  0  0  0
 16 21  1  0  0  0  0
 17 22  1  0  0  0  0
 18 17  2  0  0  0  0
 19 13  1  0  0  0  0
 20 14  1  0  0  0  0
 23 18  1  0  0  0  0
 23 24  1  0  0  0  0
 25 23  2  0  0  0  0
 26 23  2  0  0  0  0
 27 15  1  0  0  0  0
 27 28  1  0  0  0  0
 27 30  1  0  0  0  0
 29 27  1  0  0  0  0
 31 32  1  0  0  0  0
 32 33  1  0  0  0  0
 32 35  1  0  0  0  0
 34 32  1  0  0  0  0
M  RAD  3  11   2  12   3  24   2
M  END
