Coordinates from ORCA-job p-CH3O-Ph-N2-OTs-B3LYP-6-31G_dp-scan-d09-49-n400
 OpenBabel02051708043D

 35 34  0  0  0  0  0  0  0  0999 V2000
   -0.4975    0.0543   -2.7833 C   0  0  0  0  0  0  0  0  0  0  0  0
    0.5174    0.8442   -2.2326 C   0  0  0  0  0  0  0  0  0  0  0  0
    0.1787    1.7133   -1.3837 C   0  0  0  0  0  0  0  0  0  0  0  0
   -0.9831    2.1434   -0.8121 C   0  0  0  0  0  0  0  0  0  0  0  0
   -2.0354    1.3646   -1.3467 C   0  0  0  0  0  0  0  0  0  0  0  0
   -1.8005    0.3482   -2.3057 C   0  0  0  0  0  0  0  0  0  0  0  0
   -0.3591   -0.7270   -3.5236 H   0  0  0  0  0  0  0  0  0  0  0  0
    2.3699    0.6736   -2.8012 H   0  0  0  0  0  0  0  0  0  0  0  0
   -1.1255    2.9292   -0.0813 H   0  0  0  0  0  0  0  0  0  0  0  0
   -3.0420    1.5670   -0.9994 H   0  0  0  0  0  0  0  0  0  0  0  0
    2.0688    3.3434    0.0021 N   0  0  0  0  0  0  0  0  0  0  0  0
    3.1249    3.4219    0.3178 N   0  0  0  0  0  0  0  0  0  0  0  0
    6.4866    1.6181   -2.9528 C   0  0  0  0  0  0  0  0  0  0  0  0
    7.8115    1.2332   -3.1466 C   0  0  0  0  0  0  0  0  0  0  0  0
    8.2280    0.6457   -4.3509 C   0  0  0  0  0  0  0  0  0  0  0  0
    7.2811    0.4617   -5.3694 C   0  0  0  0  0  0  0  0  0  0  0  0
    5.9516    0.8412   -5.1951 C   0  0  0  0  0  0  0  0  0  0  0  0
    5.5662    1.4119   -3.9815 C   0  0  0  0  0  0  0  0  0  0  0  0
    6.1671    2.0862   -2.0281 H   0  0  0  0  0  0  0  0  0  0  0  0
    8.5358    1.3981   -2.3529 H   0  0  0  0  0  0  0  0  0  0  0  0
    7.5906    0.0217   -6.3138 H   0  0  0  0  0  0  0  0  0  0  0  0
    5.2222    0.7139   -5.9879 H   0  0  0  0  0  0  0  0  0  0  0  0
    3.8702    1.9121   -3.7506 S   0  0  0  0  0  0  0  0  0  0  0  0
    3.8037    2.9531   -2.7211 O   0  0  0  0  0  0  0  0  0  0  0  0
    3.3006    0.5216   -3.1214 O   0  0  0  0  0  0  0  0  0  0  0  0
    3.2515    2.1410   -5.0560 O   0  0  0  0  0  0  0  0  0  0  0  0
    9.6601    0.2050   -4.5393 C   0  0  0  0  0  0  0  0  0  0  0  0
   10.3518    0.8376   -3.9755 H   0  0  0  0  0  0  0  0  0  0  0  0
    9.8012   -0.8252   -4.1885 H   0  0  0  0  0  0  0  0  0  0  0  0
    9.9525    0.2327   -5.5931 H   0  0  0  0  0  0  0  0  0  0  0  0
   -2.7889   -0.4209   -2.8441 O   0  0  0  0  0  0  0  0  0  0  0  0
   -4.1324   -0.1909   -2.4477 C   0  0  0  0  0  0  0  0  0  0  0  0
   -4.7378   -0.9062   -3.0060 H   0  0  0  0  0  0  0  0  0  0  0  0
   -4.4578    0.8277   -2.6962 H   0  0  0  0  0  0  0  0  0  0  0  0
   -4.2718   -0.3637   -1.3721 H   0  0  0  0  0  0  0  0  0  0  0  0
  1  6  2  0  0  0  0
  1  2  1  0  0  0  0
  2  3  2  0  0  0  0
  3  4  1  0  0  0  0
  4  9  1  0  0  0  0
  5 10  1  0  0  0  0
  5  4  2  0  0  0  0
  6  5  1  0  0  0  0
  7  1  1  0  0  0  0
 11 12  3  0  0  0  0
 13 19  1  0  0  0  0
 14 13  1  0  0  0  0
 14 20  1  0  0  0  0
 15 14  2  0  0  0  0
 16 17  2  0  0  0  0
 16 15  1  0  0  0  0
 17 18  1  0  0  0  0
 18 23  1  0  0  0  0
 18 13  2  0  0  0  0
 21 16  1  0  0  0  0
 22 17  1  0  0  0  0
 23 25  1  0  0  0  0
 23 24  2  0  0  0  0
 25  8  1  0  0  0  0
 26 23  2  0  0  0  0
 27 15  1  0  0  0  0
 27 29  1  0  0  0  0
 27 28  1  0  0  0  0
 30 27  1  0  0  0  0
 31 32  1  0  0  0  0
 31  6  1  0  0  0  0
 32 35  1  0  0  0  0
 33 32  1  0  0  0  0
 34 32  1  0  0  0  0
M  RAD  2   2   2   3   2
M  END
