Coordinates from ORCA-job p-CH3O-Ph-N2-OTs-B3LYP-6-31G_dp-scan-d09-49-n400
 OpenBabel02051708043D

 35 35  0  0  0  0  0  0  0  0999 V2000
   -0.6157   -0.7058   -2.1949 C   0  0  0  0  0  0  0  0  0  0  0  0
    0.7379   -0.5964   -2.4849 C   0  0  0  0  0  0  0  0  0  0  0  0
    1.2890    0.6673   -2.7117 C   0  0  0  0  0  0  0  0  0  0  0  0
    0.5021    1.8118   -2.6596 C   0  0  0  0  0  0  0  0  0  0  0  0
   -0.8603    1.7038   -2.3677 C   0  0  0  0  0  0  0  0  0  0  0  0
   -1.4232    0.4421   -2.1344 C   0  0  0  0  0  0  0  0  0  0  0  0
   -1.0746   -1.6717   -2.0117 H   0  0  0  0  0  0  0  0  0  0  0  0
    1.3715   -1.4746   -2.5397 H   0  0  0  0  0  0  0  0  0  0  0  0
    0.9543    2.7794   -2.8465 H   0  0  0  0  0  0  0  0  0  0  0  0
   -1.4645    2.6027   -2.3293 H   0  0  0  0  0  0  0  0  0  0  0  0
    3.5201    1.9613   -0.0490 N   0  0  0  0  0  0  0  0  0  0  0  0
    4.2172    1.1046   -0.0055 N   0  0  0  0  0  0  0  0  0  0  0  0
    5.7179   -0.1733   -3.9237 C   0  0  0  0  0  0  0  0  0  0  0  0
    7.0751    0.0335   -3.6969 C   0  0  0  0  0  0  0  0  0  0  0  0
    7.6377    1.3183   -3.7752 C   0  0  0  0  0  0  0  0  0  0  0  0
    6.8024    2.3973   -4.0954 C   0  0  0  0  0  0  0  0  0  0  0  0
    5.4394    2.2118   -4.3249 C   0  0  0  0  0  0  0  0  0  0  0  0
    4.9111    0.9250   -4.2313 C   0  0  0  0  0  0  0  0  0  0  0  0
    5.2862   -1.1673   -3.8772 H   0  0  0  0  0  0  0  0  0  0  0  0
    7.7107   -0.8155   -3.4589 H   0  0  0  0  0  0  0  0  0  0  0  0
    7.2239    3.3960   -4.1716 H   0  0  0  0  0  0  0  0  0  0  0  0
    4.7947    3.0441   -4.5852 H   0  0  0  0  0  0  0  0  0  0  0  0
    3.1737    0.6744   -4.5289 S   0  0  0  0  0  0  0  0  0  0  0  0
    2.6728    0.7906   -2.9349 O   0  0  0  0  0  0  0  0  0  0  0  0
    2.9390   -0.6944   -4.9847 O   0  0  0  0  0  0  0  0  0  0  0  0
    2.6260    1.8099   -5.2685 O   0  0  0  0  0  0  0  0  0  0  0  0
    9.1106    1.5235   -3.5147 C   0  0  0  0  0  0  0  0  0  0  0  0
    9.7195    0.8437   -4.1199 H   0  0  0  0  0  0  0  0  0  0  0  0
    9.4200    2.5471   -3.7414 H   0  0  0  0  0  0  0  0  0  0  0  0
    9.3548    1.3253   -2.4641 H   0  0  0  0  0  0  0  0  0  0  0  0
   -2.7370    0.2223   -1.8404 O   0  0  0  0  0  0  0  0  0  0  0  0
   -3.6094    1.3398   -1.7819 C   0  0  0  0  0  0  0  0  0  0  0  0
   -4.5961    0.9397   -1.5428 H   0  0  0  0  0  0  0  0  0  0  0  0
   -3.6573    1.8668   -2.7440 H   0  0  0  0  0  0  0  0  0  0  0  0
   -3.3090    2.0487   -0.9990 H   0  0  0  0  0  0  0  0  0  0  0  0
  1  6  1  0  0  0  0
  1  7  1  0  0  0  0
  2  1  2  0  0  0  0
  3  4  2  0  0  0  0
  3  2  1  0  0  0  0
  4  5  1  0  0  0  0
  5 10  1  0  0  0  0
  5  6  2  0  0  0  0
  6 31  1  0  0  0  0
  8  2  1  0  0  0  0
  9  4  1  0  0  0  0
 11 12  3  0  0  0  0
 13 19  1  0  0  0  0
 13 14  2  0  0  0  0
 14 20  1  0  0  0  0
 15 14  1  0  0  0  0
 15 27  1  0  0  0  0
 16 15  2  0  0  0  0
 17 18  2  0  0  0  0
 17 16  1  0  0  0  0
 18 13  1  0  0  0  0
 21 16  1  0  0  0  0
 22 17  1  0  0  0  0
 23 18  1  0  0  0  0
 23 24  1  0  0  0  0
 24  3  1  0  0  0  0
 25 23  2  0  0  0  0
 26 23  2  0  0  0  0
 27 30  1  0  0  0  0
 28 27  1  0  0  0  0
 29 27  1  0  0  0  0
 31 32  1  0  0  0  0
 32 33  1  0  0  0  0
 32 35  1  0  0  0  0
 34 32  1  0  0  0  0
M  END
