Coordinates from ORCA-job p-CH3O-Ph-N2-OTs-B3LYP-6-31G_dp-scan-d09-49-n400
 OpenBabel02051708043D

 35 36  0  0  1  0  0  0  0  0999 V2000
    0.3029    0.4160   -3.2680 C   0  0  0  0  0  0  0  0  0  0  0  0
    0.8756    1.6672   -3.8164 C   0  0  1  0  0  0  0  0  0  0  0  0
    0.2681    2.9335   -3.1753 C   0  0  1  0  0  0  0  0  0  0  0  0
   -0.2311    2.7920   -1.7957 C   0  0  0  0  0  0  0  0  0  0  0  0
   -0.4709    1.5800   -1.2544 C   0  0  0  0  0  0  0  0  0  0  0  0
   -0.2681    0.3690   -2.0404 C   0  0  0  0  0  0  0  0  0  0  0  0
    0.4300   -0.4968   -3.8393 H   0  0  0  0  0  0  0  0  0  0  0  0
    0.7797    1.7270   -4.9037 H   0  0  0  0  0  0  0  0  0  0  0  0
   -0.4154    3.7099   -1.2447 H   0  0  0  0  0  0  0  0  0  0  0  0
   -0.8349    1.5141   -0.2367 H   0  0  0  0  0  0  0  0  0  0  0  0
    0.2471    3.8438   -3.6989 N   0  0  0  0  0  0  0  0  0  0  0  0
    0.2169    4.8504   -4.2782 N   0  0  0  0  0  0  0  0  0  0  0  0
    5.1730    0.2913   -4.8330 C   0  0  0  0  0  0  0  0  0  0  0  0
    6.3482   -0.3714   -4.4883 C   0  0  0  0  0  0  0  0  0  0  0  0
    7.2061    0.1374   -3.5010 C   0  0  0  0  0  0  0  0  0  0  0  0
    6.8627    1.3423   -2.8706 C   0  0  0  0  0  0  0  0  0  0  0  0
    5.6923    2.0220   -3.2021 C   0  0  0  0  0  0  0  0  0  0  0  0
    4.8546    1.4828   -4.1790 C   0  0  0  0  0  0  0  0  0  0  0  0
    4.5175   -0.0938   -5.6071 H   0  0  0  0  0  0  0  0  0  0  0  0
    6.6073   -1.2962   -4.9970 H   0  0  0  0  0  0  0  0  0  0  0  0
    7.5238    1.7578   -2.1141 H   0  0  0  0  0  0  0  0  0  0  0  0
    5.4349    2.9626   -2.7277 H   0  0  0  0  0  0  0  0  0  0  0  0
    3.3568    2.3438   -4.6156 S   0  0  0  0  0  0  0  0  0  0  0  0
    2.3462    1.6300   -3.5276 O   0  0  0  0  0  0  0  0  0  0  0  0
    2.9311    1.9497   -5.9624 O   0  0  0  0  0  0  0  0  0  0  0  0
    3.4942    3.7603   -4.2766 O   0  0  0  0  0  0  0  0  0  0  0  0
    8.4613   -0.6072   -3.1146 C   0  0  0  0  0  0  0  0  0  0  0  0
    8.2466   -1.3620   -2.3475 H   0  0  0  0  0  0  0  0  0  0  0  0
    8.8965   -1.1296   -3.9720 H   0  0  0  0  0  0  0  0  0  0  0  0
    9.2185    0.0684   -2.7063 H   0  0  0  0  0  0  0  0  0  0  0  0
   -0.6567   -0.8534   -1.5766 O   0  0  0  0  0  0  0  0  0  0  0  0
   -1.4766   -0.9396   -0.4175 C   0  0  0  0  0  0  0  0  0  0  0  0
   -1.7500   -1.9921   -0.3274 H   0  0  0  0  0  0  0  0  0  0  0  0
   -2.3899   -0.3400   -0.5145 H   0  0  0  0  0  0  0  0  0  0  0  0
   -0.9381   -0.6376    0.4899 H   0  0  0  0  0  0  0  0  0  0  0  0
  1  6  2  0  0  0  0
  2  8  1  6  0  0  0
  2 24  1  0  0  0  0
  2  1  1  0  0  0  0
  2  3  1  0  0  0  0
  3 11  1  1  0  0  0
  3  4  1  0  0  0  0
  4  5  2  0  0  0  0
  4  9  1  0  0  0  0
  5 10  1  0  0  0  0
  6 31  1  0  0  0  0
  6  5  1  0  0  0  0
  7  1  1  0  0  0  0
 12 11  1  0  0  0  0
 13 14  2  0  0  0  0
 13 18  1  0  0  0  0
 14 15  1  0  0  0  0
 15 27  1  0  0  0  0
 15 16  2  0  0  0  0
 16 21  1  0  0  0  0
 17 16  1  0  0  0  0
 17 22  1  0  0  0  0
 18 17  2  0  0  0  0
 19 13  1  0  0  0  0
 20 14  1  0  0  0  0
 23 26  2  0  0  0  0
 23 18  1  0  0  0  0
 23 24  1  0  0  0  0
 25 23  2  0  0  0  0
 27 30  1  0  0  0  0
 27 28  1  0  0  0  0
 29 27  1  0  0  0  0
 31 32  1  0  0  0  0
 32 33  1  0  0  0  0
 32 35  1  0  0  0  0
 34 32  1  0  0  0  0
M  RAD  3   3   2  11   2  12   3
M  END
