Coordinates from ORCA-job p-CH3O-Ph-N2-OTs-B3LYP-6-31G_dp-scan-d09-49-n400
 OpenBabel02051708043D

 35 34  0  0  0  0  0  0  0  0999 V2000
   -0.5089    0.0371   -2.7861 C   0  0  0  0  0  0  0  0  0  0  0  0
    0.5084    0.8272   -2.2429 C   0  0  0  0  0  0  0  0  0  0  0  0
    0.1847    1.7049   -1.3987 C   0  0  0  0  0  0  0  0  0  0  0  0
   -0.9749    2.1436   -0.8275 C   0  0  0  0  0  0  0  0  0  0  0  0
   -2.0332    1.3669   -1.3523 C   0  0  0  0  0  0  0  0  0  0  0  0
   -1.8083    0.3422   -2.3051 C   0  0  0  0  0  0  0  0  0  0  0  0
   -0.3768   -0.7498   -3.5216 H   0  0  0  0  0  0  0  0  0  0  0  0
    2.3689    0.6544   -2.8167 H   0  0  0  0  0  0  0  0  0  0  0  0
   -1.1118    2.9352   -0.1019 H   0  0  0  0  0  0  0  0  0  0  0  0
   -3.0371    1.5775   -1.0021 H   0  0  0  0  0  0  0  0  0  0  0  0
    2.0983    3.3608    0.0074 N   0  0  0  0  0  0  0  0  0  0  0  0
    3.1532    3.4387    0.3273 N   0  0  0  0  0  0  0  0  0  0  0  0
    6.4796    1.6054   -2.9486 C   0  0  0  0  0  0  0  0  0  0  0  0
    7.8064    1.2259   -3.1393 C   0  0  0  0  0  0  0  0  0  0  0  0
    8.2307    0.6516   -4.3473 C   0  0  0  0  0  0  0  0  0  0  0  0
    7.2896    0.4754   -5.3725 C   0  0  0  0  0  0  0  0  0  0  0  0
    5.9583    0.8497   -5.2014 C   0  0  0  0  0  0  0  0  0  0  0  0
    5.5651    1.4071   -3.9842 C   0  0  0  0  0  0  0  0  0  0  0  0
    6.1541    2.0634   -2.0210 H   0  0  0  0  0  0  0  0  0  0  0  0
    8.5261    1.3845   -2.3402 H   0  0  0  0  0  0  0  0  0  0  0  0
    7.6053    0.0457   -6.3197 H   0  0  0  0  0  0  0  0  0  0  0  0
    5.2333    0.7284   -5.9992 H   0  0  0  0  0  0  0  0  0  0  0  0
    3.8666    1.9005   -3.7571 S   0  0  0  0  0  0  0  0  0  0  0  0
    3.7918    2.9335   -2.7202 O   0  0  0  0  0  0  0  0  0  0  0  0
    3.2983    0.5038   -3.1393 O   0  0  0  0  0  0  0  0  0  0  0  0
    3.2528    2.1363   -5.0635 O   0  0  0  0  0  0  0  0  0  0  0  0
    9.6650    0.2167   -4.5325 C   0  0  0  0  0  0  0  0  0  0  0  0
   10.3526    0.8503   -3.9648 H   0  0  0  0  0  0  0  0  0  0  0  0
    9.8088   -0.8139   -4.1840 H   0  0  0  0  0  0  0  0  0  0  0  0
    9.9605    0.2484   -5.5854 H   0  0  0  0  0  0  0  0  0  0  0  0
   -2.8033   -0.4250   -2.8341 O   0  0  0  0  0  0  0  0  0  0  0  0
   -4.1439   -0.1836   -2.4344 C   0  0  0  0  0  0  0  0  0  0  0  0
   -4.7558   -0.8992   -2.9852 H   0  0  0  0  0  0  0  0  0  0  0  0
   -4.4637    0.8352   -2.6892 H   0  0  0  0  0  0  0  0  0  0  0  0
   -4.2802   -0.3475   -1.3571 H   0  0  0  0  0  0  0  0  0  0  0  0
  1  6  2  0  0  0  0
  1  2  1  0  0  0  0
  2  3  2  0  0  0  0
  3  4  1  0  0  0  0
  4  9  1  0  0  0  0
  5 10  1  0  0  0  0
  5  4  2  0  0  0  0
  6  5  1  0  0  0  0
  7  1  1  0  0  0  0
 11 12  3  0  0  0  0
 13 19  1  0  0  0  0
 14 13  1  0  0  0  0
 14 20  1  0  0  0  0
 15 14  2  0  0  0  0
 16 17  2  0  0  0  0
 16 15  1  0  0  0  0
 17 18  1  0  0  0  0
 18 23  1  0  0  0  0
 18 13  2  0  0  0  0
 21 16  1  0  0  0  0
 22 17  1  0  0  0  0
 23 25  1  0  0  0  0
 23 24  2  0  0  0  0
 25  8  1  0  0  0  0
 26 23  2  0  0  0  0
 27 15  1  0  0  0  0
 27 29  1  0  0  0  0
 27 28  1  0  0  0  0
 30 27  1  0  0  0  0
 31 32  1  0  0  0  0
 31  6  1  0  0  0  0
 32 35  1  0  0  0  0
 33 32  1  0  0  0  0
 34 32  1  0  0  0  0
M  RAD  2   2   2   3   2
M  END
