Coordinates from ORCA-job p-CH3O-Ph-N2-OTs-B3LYP-6-31G_dp-scan-d09-49-n400
 OpenBabel02051708043D

 35 34  0  0  0  0  0  0  0  0999 V2000
   -0.6041   -0.1473   -2.7829 C   0  0  0  0  0  0  0  0  0  0  0  0
    0.4771    0.6175   -2.3380 C   0  0  0  0  0  0  0  0  0  0  0  0
    0.2438    1.5819   -1.5624 C   0  0  0  0  0  0  0  0  0  0  0  0
   -0.8646    2.1460   -0.9984 C   0  0  0  0  0  0  0  0  0  0  0  0
   -1.9877    1.3999   -1.4248 C   0  0  0  0  0  0  0  0  0  0  0  0
   -1.8631    0.2859   -2.2919 C   0  0  0  0  0  0  0  0  0  0  0  0
   -0.5504   -1.0004   -3.4512 H   0  0  0  0  0  0  0  0  0  0  0  0
    2.3608    0.4472   -2.9450 H   0  0  0  0  0  0  0  0  0  0  0  0
   -0.9248    3.0027   -0.3398 H   0  0  0  0  0  0  0  0  0  0  0  0
   -2.9635    1.7042   -1.0643 H   0  0  0  0  0  0  0  0  0  0  0  0
    2.2700    3.4376    0.0698 N   0  0  0  0  0  0  0  0  0  0  0  0
    3.3174    3.5294    0.4094 N   0  0  0  0  0  0  0  0  0  0  0  0
    6.4229    1.5045   -2.9124 C   0  0  0  0  0  0  0  0  0  0  0  0
    7.7660    1.1790   -3.0855 C   0  0  0  0  0  0  0  0  0  0  0  0
    8.2477    0.7164   -4.3201 C   0  0  0  0  0  0  0  0  0  0  0  0
    7.3473    0.5975   -5.3887 C   0  0  0  0  0  0  0  0  0  0  0  0
    5.9998    0.9190   -5.2355 C   0  0  0  0  0  0  0  0  0  0  0  0
    5.5496    1.3648   -3.9926 C   0  0  0  0  0  0  0  0  0  0  0  0
    6.0533    1.8776   -1.9634 H   0  0  0  0  0  0  0  0  0  0  0  0
    8.4536    1.2920   -2.2510 H   0  0  0  0  0  0  0  0  0  0  0  0
    7.7074    0.2542   -6.3550 H   0  0  0  0  0  0  0  0  0  0  0  0
    5.3054    0.8418   -6.0652 H   0  0  0  0  0  0  0  0  0  0  0  0
    3.8298    1.7882   -3.7880 S   0  0  0  0  0  0  0  0  0  0  0  0
    3.6876    2.7478   -2.6891 O   0  0  0  0  0  0  0  0  0  0  0  0
    3.2900    0.3369   -3.2780 O   0  0  0  0  0  0  0  0  0  0  0  0
    3.2482    2.0894   -5.0954 O   0  0  0  0  0  0  0  0  0  0  0  0
    9.7006    0.3398   -4.4871 C   0  0  0  0  0  0  0  0  0  0  0  0
   10.3533    0.9885   -3.8956 H   0  0  0  0  0  0  0  0  0  0  0  0
    9.8778   -0.6905   -4.1536 H   0  0  0  0  0  0  0  0  0  0  0  0
   10.0130    0.4028   -5.5335 H   0  0  0  0  0  0  0  0  0  0  0  0
   -2.9244   -0.4531   -2.7239 O   0  0  0  0  0  0  0  0  0  0  0  0
   -4.2332   -0.0779   -2.3215 C   0  0  0  0  0  0  0  0  0  0  0  0
   -4.9096   -0.7912   -2.7946 H   0  0  0  0  0  0  0  0  0  0  0  0
   -4.4840    0.9358   -2.6597 H   0  0  0  0  0  0  0  0  0  0  0  0
   -4.3529   -0.1361   -1.2314 H   0  0  0  0  0  0  0  0  0  0  0  0
  1  2  2  0  0  0  0
  1  6  1  0  0  0  0
  2  3  1  0  0  0  0
  3  4  2  0  0  0  0
  4  9  1  0  0  0  0
  5 10  1  0  0  0  0
  5  4  1  0  0  0  0
  6  5  2  0  0  0  0
  7  1  1  0  0  0  0
 11 12  3  0  0  0  0
 13 19  1  0  0  0  0
 14 13  1  0  0  0  0
 14 20  1  0  0  0  0
 15 14  2  0  0  0  0
 16 17  2  0  0  0  0
 16 15  1  0  0  0  0
 17 18  1  0  0  0  0
 18 23  1  0  0  0  0
 18 13  2  0  0  0  0
 21 16  1  0  0  0  0
 22 17  1  0  0  0  0
 23 25  1  0  0  0  0
 23 24  2  0  0  0  0
 25  8  1  0  0  0  0
 26 23  2  0  0  0  0
 27 15  1  0  0  0  0
 27 29  1  0  0  0  0
 27 28  1  0  0  0  0
 30 27  1  0  0  0  0
 31 32  1  0  0  0  0
 31  6  1  0  0  0  0
 32 35  1  0  0  0  0
 33 32  1  0  0  0  0
 34 32  1  0  0  0  0
M  RAD  2   2   2   3   2
M  END
