Coordinates from ORCA-job p-CH3O-Ph-N2-OTs-B3LYP-6-31G_dp-scan-d09-49-n400
 OpenBabel02051708043D

 35 35  0  0  0  0  0  0  0  0999 V2000
   -0.6236   -0.7185   -2.2007 C   0  0  0  0  0  0  0  0  0  0  0  0
    0.7300   -0.6033   -2.4885 C   0  0  0  0  0  0  0  0  0  0  0  0
    1.2768    0.6628   -2.7118 C   0  0  0  0  0  0  0  0  0  0  0  0
    0.4849    1.8041   -2.6592 C   0  0  0  0  0  0  0  0  0  0  0  0
   -0.8775    1.6904   -2.3700 C   0  0  0  0  0  0  0  0  0  0  0  0
   -1.4357    0.4260   -2.1395 C   0  0  0  0  0  0  0  0  0  0  0  0
   -1.0791   -1.6866   -2.0199 H   0  0  0  0  0  0  0  0  0  0  0  0
    1.3671   -1.4790   -2.5439 H   0  0  0  0  0  0  0  0  0  0  0  0
    0.9332    2.7740   -2.8440 H   0  0  0  0  0  0  0  0  0  0  0  0
   -1.4852    2.5868   -2.3311 H   0  0  0  0  0  0  0  0  0  0  0  0
    3.7236    2.1197   -0.0802 N   0  0  0  0  0  0  0  0  0  0  0  0
    4.3767    1.2289   -0.1209 N   0  0  0  0  0  0  0  0  0  0  0  0
    5.6993   -0.1728   -3.9272 C   0  0  0  0  0  0  0  0  0  0  0  0
    7.0576    0.0210   -3.6961 C   0  0  0  0  0  0  0  0  0  0  0  0
    7.6301    1.3023   -3.7590 C   0  0  0  0  0  0  0  0  0  0  0  0
    6.8037    2.3912   -4.0679 C   0  0  0  0  0  0  0  0  0  0  0  0
    5.4396    2.2188   -4.3015 C   0  0  0  0  0  0  0  0  0  0  0  0
    4.9014    0.9352   -4.2235 C   0  0  0  0  0  0  0  0  0  0  0  0
    5.2599   -1.1639   -3.8923 H   0  0  0  0  0  0  0  0  0  0  0  0
    7.6863   -0.8354   -3.4665 H   0  0  0  0  0  0  0  0  0  0  0  0
    7.2330    3.3874   -4.1319 H   0  0  0  0  0  0  0  0  0  0  0  0
    4.8016    3.0589   -4.5529 H   0  0  0  0  0  0  0  0  0  0  0  0
    3.1626    0.7012   -4.5269 S   0  0  0  0  0  0  0  0  0  0  0  0
    2.6605    0.7903   -2.9316 O   0  0  0  0  0  0  0  0  0  0  0  0
    2.9193   -0.6571   -5.0086 O   0  0  0  0  0  0  0  0  0  0  0  0
    2.6233    1.8540   -5.2455 O   0  0  0  0  0  0  0  0  0  0  0  0
    9.1044    1.4928   -3.4949 C   0  0  0  0  0  0  0  0  0  0  0  0
    9.7089    0.8256   -4.1184 H   0  0  0  0  0  0  0  0  0  0  0  0
    9.4191    2.5203   -3.6956 H   0  0  0  0  0  0  0  0  0  0  0  0
    9.3487    1.2660   -2.4502 H   0  0  0  0  0  0  0  0  0  0  0  0
   -2.7491    0.2005   -1.8478 O   0  0  0  0  0  0  0  0  0  0  0  0
   -3.6259    1.3143   -1.7882 C   0  0  0  0  0  0  0  0  0  0  0  0
   -4.6113    0.9099   -1.5510 H   0  0  0  0  0  0  0  0  0  0  0  0
   -3.6747    1.8431   -2.7493 H   0  0  0  0  0  0  0  0  0  0  0  0
   -3.3291    2.0229   -1.0036 H   0  0  0  0  0  0  0  0  0  0  0  0
  1  6  1  0  0  0  0
  1  7  1  0  0  0  0
  2  1  2  0  0  0  0
  3  4  2  0  0  0  0
  3  2  1  0  0  0  0
  4  5  1  0  0  0  0
  5 10  1  0  0  0  0
  5  6  2  0  0  0  0
  6 31  1  0  0  0  0
  8  2  1  0  0  0  0
  9  4  1  0  0  0  0
 12 11  3  0  0  0  0
 13 19  1  0  0  0  0
 13 14  2  0  0  0  0
 14 20  1  0  0  0  0
 15 14  1  0  0  0  0
 15 27  1  0  0  0  0
 16 15  2  0  0  0  0
 17 18  2  0  0  0  0
 17 16  1  0  0  0  0
 18 13  1  0  0  0  0
 21 16  1  0  0  0  0
 22 17  1  0  0  0  0
 23 18  1  0  0  0  0
 23 24  1  0  0  0  0
 24  3  1  0  0  0  0
 25 23  2  0  0  0  0
 26 23  2  0  0  0  0
 27 30  1  0  0  0  0
 28 27  1  0  0  0  0
 29 27  1  0  0  0  0
 31 32  1  0  0  0  0
 32 33  1  0  0  0  0
 32 35  1  0  0  0  0
 34 32  1  0  0  0  0
M  END
