Coordinates from ORCA-job p-CH3O-Ph-N2-OTs-B3LYP-6-31G_dp-scan-d09-49-n400
 OpenBabel02051708043D

 35 34  0  0  0  0  0  0  0  0999 V2000
   -0.4844    0.0875   -2.8260 C   0  0  0  0  0  0  0  0  0  0  0  0
    0.5767    0.9988   -2.8926 C   0  0  0  0  0  0  0  0  0  0  0  0
    0.3612    2.0664   -2.0844 C   0  0  0  0  0  0  0  0  0  0  0  0
   -0.6450    2.4210   -1.2362 C   0  0  0  0  0  0  0  0  0  0  0  0
   -1.6797    1.4706   -1.1988 C   0  0  0  0  0  0  0  0  0  0  0  0
   -1.5972    0.3099   -1.9898 C   0  0  0  0  0  0  0  0  0  0  0  0
   -0.4540   -0.8144   -3.4286 H   0  0  0  0  0  0  0  0  0  0  0  0
    1.4568    0.8606   -3.5430 H   0  0  0  0  0  0  0  0  0  0  0  0
   -0.6644    3.3299   -0.6493 H   0  0  0  0  0  0  0  0  0  0  0  0
   -2.5288    1.6600   -0.5532 H   0  0  0  0  0  0  0  0  0  0  0  0
    1.7512    3.4228   -2.1250 N   0  0  0  0  0  0  0  0  0  0  0  0
    2.0138    4.4907   -1.9647 N   0  0  0  0  0  0  0  0  0  0  0  0
    5.7327    0.0213   -4.1177 C   0  0  0  0  0  0  0  0  0  0  0  0
    7.0567   -0.4144   -4.1539 C   0  0  0  0  0  0  0  0  0  0  0  0
    8.1203    0.4988   -4.1817 C   0  0  0  0  0  0  0  0  0  0  0  0
    7.8210    1.8691   -4.1848 C   0  0  0  0  0  0  0  0  0  0  0  0
    6.5021    2.3195   -4.1492 C   0  0  0  0  0  0  0  0  0  0  0  0
    5.4615    1.3901   -4.1123 C   0  0  0  0  0  0  0  0  0  0  0  0
    4.9101   -0.6858   -4.1172 H   0  0  0  0  0  0  0  0  0  0  0  0
    7.2684   -1.4815   -4.1688 H   0  0  0  0  0  0  0  0  0  0  0  0
    8.6319    2.5931   -4.2242 H   0  0  0  0  0  0  0  0  0  0  0  0
    6.2696    3.3792   -4.1730 H   0  0  0  0  0  0  0  0  0  0  0  0
    3.7625    1.9714   -4.0304 S   0  0  0  0  0  0  0  0  0  0  0  0
    3.4553    2.0058   -2.5390 O   0  0  0  0  0  0  0  0  0  0  0  0
    2.9352    0.9226   -4.7034 O   0  0  0  0  0  0  0  0  0  0  0  0
    3.7192    3.3128   -4.6453 O   0  0  0  0  0  0  0  0  0  0  0  0
    9.5535    0.0203   -4.1908 C   0  0  0  0  0  0  0  0  0  0  0  0
    9.9611   -0.0294   -3.1728 H   0  0  0  0  0  0  0  0  0  0  0  0
    9.6387   -0.9810   -4.6241 H   0  0  0  0  0  0  0  0  0  0  0  0
   10.1980    0.6941   -4.7646 H   0  0  0  0  0  0  0  0  0  0  0  0
   -2.5428   -0.6574   -2.0190 O   0  0  0  0  0  0  0  0  0  0  0  0
   -3.6968   -0.5172   -1.1966 C   0  0  0  0  0  0  0  0  0  0  0  0
   -4.3031   -1.4046   -1.3821 H   0  0  0  0  0  0  0  0  0  0  0  0
   -4.2730    0.3777   -1.4639 H   0  0  0  0  0  0  0  0  0  0  0  0
   -3.4280   -0.4766   -0.1336 H   0  0  0  0  0  0  0  0  0  0  0  0
  1  6  1  0  0  0  0
  2  1  2  0  0  0  0
  2  3  1  0  0  0  0
  3  4  2  0  0  0  0
  4  5  1  0  0  0  0
  4  9  1  0  0  0  0
  5 10  1  0  0  0  0
  6  5  2  0  0  0  0
  7  1  1  0  0  0  0
  8  2  1  0  0  0  0
 11 12  3  0  0  0  0
 13 19  1  0  0  0  0
 13 18  1  0  0  0  0
 14 13  2  0  0  0  0
 15 14  1  0  0  0  0
 16 15  2  0  0  0  0
 16 17  1  0  0  0  0
 17 18  2  0  0  0  0
 18 23  1  0  0  0  0
 20 14  1  0  0  0  0
 21 16  1  0  0  0  0
 22 17  1  0  0  0  0
 23 24  1  0  0  0  0
 25 23  2  0  0  0  0
 26 23  2  0  0  0  0
 27 15  1  0  0  0  0
 27 28  1  0  0  0  0
 29 27  1  0  0  0  0
 30 27  1  0  0  0  0
 31  6  1  0  0  0  0
 31 32  1  0  0  0  0
 32 35  1  0  0  0  0
 33 32  1  0  0  0  0
 34 32  1  0  0  0  0
M  RAD  2   3   2  24   2
M  END
