Coordinates from ORCA-job p-CH3O-Ph-N2-OTs-B3LYP-6-31G_dp-scan-d09-49-n400
 OpenBabel02051708043D

 35 35  0  0  0  0  0  0  0  0999 V2000
   -0.6416   -0.7259   -2.2023 C   0  0  0  0  0  0  0  0  0  0  0  0
    0.7128   -0.5965   -2.4794 C   0  0  0  0  0  0  0  0  0  0  0  0
    1.2471    0.6747   -2.7034 C   0  0  0  0  0  0  0  0  0  0  0  0
    0.4419    1.8073   -2.6625 C   0  0  0  0  0  0  0  0  0  0  0  0
   -0.9216    1.6791   -2.3842 C   0  0  0  0  0  0  0  0  0  0  0  0
   -1.4671    0.4095   -2.1527 C   0  0  0  0  0  0  0  0  0  0  0  0
   -1.0876   -1.6983   -2.0210 H   0  0  0  0  0  0  0  0  0  0  0  0
    1.3600   -1.4653   -2.5258 H   0  0  0  0  0  0  0  0  0  0  0  0
    0.8806    2.7814   -2.8484 H   0  0  0  0  0  0  0  0  0  0  0  0
   -1.5397    2.5687   -2.3546 H   0  0  0  0  0  0  0  0  0  0  0  0
    4.2045    2.2528   -0.1261 N   0  0  0  0  0  0  0  0  0  0  0  0
    4.7463    1.3081   -0.3152 N   0  0  0  0  0  0  0  0  0  0  0  0
    5.6666   -0.1655   -3.8994 C   0  0  0  0  0  0  0  0  0  0  0  0
    7.0265    0.0134   -3.6669 C   0  0  0  0  0  0  0  0  0  0  0  0
    7.6133    1.2883   -3.7301 C   0  0  0  0  0  0  0  0  0  0  0  0
    6.7989    2.3863   -4.0383 C   0  0  0  0  0  0  0  0  0  0  0  0
    5.4331    2.2290   -4.2728 C   0  0  0  0  0  0  0  0  0  0  0  0
    4.8809    0.9513   -4.1961 C   0  0  0  0  0  0  0  0  0  0  0  0
    5.2163   -1.1517   -3.8643 H   0  0  0  0  0  0  0  0  0  0  0  0
    7.6454   -0.8497   -3.4357 H   0  0  0  0  0  0  0  0  0  0  0  0
    7.2389    3.3780   -4.1004 H   0  0  0  0  0  0  0  0  0  0  0  0
    4.8041    3.0763   -4.5229 H   0  0  0  0  0  0  0  0  0  0  0  0
    3.1411    0.7347   -4.5066 S   0  0  0  0  0  0  0  0  0  0  0  0
    2.6309    0.8168   -2.9133 O   0  0  0  0  0  0  0  0  0  0  0  0
    2.8882   -0.6180   -4.9991 O   0  0  0  0  0  0  0  0  0  0  0  0
    2.6152    1.8972   -5.2197 O   0  0  0  0  0  0  0  0  0  0  0  0
    9.0913    1.4605   -3.4744 C   0  0  0  0  0  0  0  0  0  0  0  0
    9.6861    0.8671   -4.1778 H   0  0  0  0  0  0  0  0  0  0  0  0
    9.3972    2.5052   -3.5730 H   0  0  0  0  0  0  0  0  0  0  0  0
    9.3583    1.1249   -2.4656 H   0  0  0  0  0  0  0  0  0  0  0  0
   -2.7803    0.1701   -1.8708 O   0  0  0  0  0  0  0  0  0  0  0  0
   -3.6700    1.2743   -1.8222 C   0  0  0  0  0  0  0  0  0  0  0  0
   -4.6526    0.8597   -1.5909 H   0  0  0  0  0  0  0  0  0  0  0  0
   -3.7175    1.7988   -2.7857 H   0  0  0  0  0  0  0  0  0  0  0  0
   -3.3870    1.9891   -1.0382 H   0  0  0  0  0  0  0  0  0  0  0  0
  1  6  1  0  0  0  0
  1  7  1  0  0  0  0
  2  1  2  0  0  0  0
  3  4  2  0  0  0  0
  3  2  1  0  0  0  0
  4  5  1  0  0  0  0
  5 10  1  0  0  0  0
  5  6  2  0  0  0  0
  6 31  1  0  0  0  0
  8  2  1  0  0  0  0
  9  4  1  0  0  0  0
 12 11  3  0  0  0  0
 13 19  1  0  0  0  0
 13 14  2  0  0  0  0
 14 20  1  0  0  0  0
 15 14  1  0  0  0  0
 15 27  1  0  0  0  0
 16 15  2  0  0  0  0
 17 18  2  0  0  0  0
 17 16  1  0  0  0  0
 18 13  1  0  0  0  0
 21 16  1  0  0  0  0
 22 17  1  0  0  0  0
 23 18  1  0  0  0  0
 23 24  1  0  0  0  0
 24  3  1  0  0  0  0
 25 23  2  0  0  0  0
 26 23  2  0  0  0  0
 27 30  1  0  0  0  0
 28 27  1  0  0  0  0
 29 27  1  0  0  0  0
 31 32  1  0  0  0  0
 32 33  1  0  0  0  0
 32 35  1  0  0  0  0
 34 32  1  0  0  0  0
M  END
