Coordinates from ORCA-job p-CH3O-Ph-N2-OTs-B3LYP-6-31G_dp-scan-d09-49-n400
 OpenBabel02051708043D

 35 34  0  0  0  0  0  0  0  0999 V2000
   -0.4963    0.0557   -2.7825 C   0  0  0  0  0  0  0  0  0  0  0  0
    0.5176    0.8459   -2.2308 C   0  0  0  0  0  0  0  0  0  0  0  0
    0.1796    1.7146   -1.3815 C   0  0  0  0  0  0  0  0  0  0  0  0
   -0.9830    2.1438   -0.8104 C   0  0  0  0  0  0  0  0  0  0  0  0
   -2.0348    1.3651   -1.3457 C   0  0  0  0  0  0  0  0  0  0  0  0
   -1.7996    0.3492   -2.3052 C   0  0  0  0  0  0  0  0  0  0  0  0
   -0.3573   -0.7251   -3.5233 H   0  0  0  0  0  0  0  0  0  0  0  0
    2.3701    0.6739   -2.8006 H   0  0  0  0  0  0  0  0  0  0  0  0
   -1.1260    2.9292   -0.0794 H   0  0  0  0  0  0  0  0  0  0  0  0
   -3.0415    1.5671   -0.9985 H   0  0  0  0  0  0  0  0  0  0  0  0
    2.0636    3.3384   -0.0005 N   0  0  0  0  0  0  0  0  0  0  0  0
    3.1199    3.4170    0.3143 N   0  0  0  0  0  0  0  0  0  0  0  0
    6.4864    1.6185   -2.9533 C   0  0  0  0  0  0  0  0  0  0  0  0
    7.8113    1.2337   -3.1468 C   0  0  0  0  0  0  0  0  0  0  0  0
    8.2280    0.6457   -4.3509 C   0  0  0  0  0  0  0  0  0  0  0  0
    7.2812    0.4612   -5.3693 C   0  0  0  0  0  0  0  0  0  0  0  0
    5.9517    0.8405   -5.1953 C   0  0  0  0  0  0  0  0  0  0  0  0
    5.5661    1.4116   -3.9819 C   0  0  0  0  0  0  0  0  0  0  0  0
    6.1667    2.0869   -2.0289 H   0  0  0  0  0  0  0  0  0  0  0  0
    8.5356    1.3991   -2.3532 H   0  0  0  0  0  0  0  0  0  0  0  0
    7.5909    0.0208   -6.3136 H   0  0  0  0  0  0  0  0  0  0  0  0
    5.2223    0.7127   -5.9881 H   0  0  0  0  0  0  0  0  0  0  0  0
    3.8699    1.9116   -3.7514 S   0  0  0  0  0  0  0  0  0  0  0  0
    3.8032    2.9532   -2.7224 O   0  0  0  0  0  0  0  0  0  0  0  0
    3.3006    0.5214   -3.1212 O   0  0  0  0  0  0  0  0  0  0  0  0
    3.2512    2.1395   -5.0569 O   0  0  0  0  0  0  0  0  0  0  0  0
    9.6602    0.2053   -4.5390 C   0  0  0  0  0  0  0  0  0  0  0  0
   10.3517    0.8378   -3.9750 H   0  0  0  0  0  0  0  0  0  0  0  0
    9.8013   -0.8250   -4.1884 H   0  0  0  0  0  0  0  0  0  0  0  0
    9.9528    0.2332   -5.5928 H   0  0  0  0  0  0  0  0  0  0  0  0
   -2.7877   -0.4198   -2.8442 O   0  0  0  0  0  0  0  0  0  0  0  0
   -4.1313   -0.1903   -2.4480 C   0  0  0  0  0  0  0  0  0  0  0  0
   -4.7364   -0.9054   -3.0068 H   0  0  0  0  0  0  0  0  0  0  0  0
   -4.4568    0.8284   -2.6961 H   0  0  0  0  0  0  0  0  0  0  0  0
   -4.2709   -0.3636   -1.3726 H   0  0  0  0  0  0  0  0  0  0  0  0
  1  6  2  0  0  0  0
  1  2  1  0  0  0  0
  2  3  2  0  0  0  0
  3  4  1  0  0  0  0
  4  9  1  0  0  0  0
  5 10  1  0  0  0  0
  5  4  2  0  0  0  0
  6  5  1  0  0  0  0
  7  1  1  0  0  0  0
 11 12  3  0  0  0  0
 13 19  1  0  0  0  0
 14 13  1  0  0  0  0
 14 20  1  0  0  0  0
 15 14  2  0  0  0  0
 16 17  2  0  0  0  0
 16 15  1  0  0  0  0
 17 18  1  0  0  0  0
 18 23  1  0  0  0  0
 18 13  2  0  0  0  0
 21 16  1  0  0  0  0
 22 17  1  0  0  0  0
 23 25  1  0  0  0  0
 23 24  2  0  0  0  0
 25  8  1  0  0  0  0
 26 23  2  0  0  0  0
 27 15  1  0  0  0  0
 27 29  1  0  0  0  0
 27 28  1  0  0  0  0
 30 27  1  0  0  0  0
 31 32  1  0  0  0  0
 31  6  1  0  0  0  0
 32 35  1  0  0  0  0
 33 32  1  0  0  0  0
 34 32  1  0  0  0  0
M  RAD  2   2   2   3   2
M  END
