Coordinates from ORCA-job p-CH3O-Ph-N2-OTs-B3LYP-6-31G_dp-scan-d09-49-n400
 OpenBabel02051708043D

 35 35  0  0  0  0  0  0  0  0999 V2000
   -0.5212    0.0534   -2.8045 C   0  0  0  0  0  0  0  0  0  0  0  0
    0.5648    0.9296   -2.8822 C   0  0  0  0  0  0  0  0  0  0  0  0
    0.4010    2.0265   -2.0901 C   0  0  0  0  0  0  0  0  0  0  0  0
   -0.6076    2.4099   -1.2505 C   0  0  0  0  0  0  0  0  0  0  0  0
   -1.6712    1.4960   -1.1979 C   0  0  0  0  0  0  0  0  0  0  0  0
   -1.6260    0.3221   -1.9719 C   0  0  0  0  0  0  0  0  0  0  0  0
   -0.5217   -0.8573   -3.3941 H   0  0  0  0  0  0  0  0  0  0  0  0
    1.4343    0.7560   -3.5292 H   0  0  0  0  0  0  0  0  0  0  0  0
   -0.6021    3.3271   -0.6761 H   0  0  0  0  0  0  0  0  0  0  0  0
   -2.5139    1.7207   -0.5555 H   0  0  0  0  0  0  0  0  0  0  0  0
    1.7795    3.2923   -2.1463 N   0  0  0  0  0  0  0  0  0  0  0  0
    2.0477    4.3592   -1.9747 N   0  0  0  0  0  0  0  0  0  0  0  0
    5.7699   -0.0027   -4.1977 C   0  0  0  0  0  0  0  0  0  0  0  0
    7.1059   -0.4021   -4.2242 C   0  0  0  0  0  0  0  0  0  0  0  0
    8.1449    0.5378   -4.1799 C   0  0  0  0  0  0  0  0  0  0  0  0
    7.8095    1.8990   -4.1201 C   0  0  0  0  0  0  0  0  0  0  0  0
    6.4791    2.3132   -4.0939 C   0  0  0  0  0  0  0  0  0  0  0  0
    5.4629    1.3565   -4.1297 C   0  0  0  0  0  0  0  0  0  0  0  0
    4.9659   -0.7288   -4.2524 H   0  0  0  0  0  0  0  0  0  0  0  0
    7.3460   -1.4612   -4.2889 H   0  0  0  0  0  0  0  0  0  0  0  0
    8.6015    2.6444   -4.1021 H   0  0  0  0  0  0  0  0  0  0  0  0
    6.2203    3.3668   -4.0693 H   0  0  0  0  0  0  0  0  0  0  0  0
    3.7480    1.8885   -4.0655 S   0  0  0  0  0  0  0  0  0  0  0  0
    3.4323    1.9021   -2.5689 O   0  0  0  0  0  0  0  0  0  0  0  0
    2.9538    0.8273   -4.7496 O   0  0  0  0  0  0  0  0  0  0  0  0
    3.6734    3.2385   -4.6579 O   0  0  0  0  0  0  0  0  0  0  0  0
    9.5905    0.0981   -4.1800 C   0  0  0  0  0  0  0  0  0  0  0  0
    9.9900    0.0509   -3.1587 H   0  0  0  0  0  0  0  0  0  0  0  0
    9.7065   -0.8965   -4.6213 H   0  0  0  0  0  0  0  0  0  0  0  0
   10.2219    0.7941   -4.7418 H   0  0  0  0  0  0  0  0  0  0  0  0
   -2.6016   -0.6153   -1.9875 O   0  0  0  0  0  0  0  0  0  0  0  0
   -3.7527   -0.4253   -1.1711 C   0  0  0  0  0  0  0  0  0  0  0  0
   -4.3867   -1.2957   -1.3448 H   0  0  0  0  0  0  0  0  0  0  0  0
   -4.2991    0.4833   -1.4541 H   0  0  0  0  0  0  0  0  0  0  0  0
   -3.4858   -0.3766   -0.1080 H   0  0  0  0  0  0  0  0  0  0  0  0
  1  6  1  0  0  0  0
  2  1  2  0  0  0  0
  2  3  1  0  0  0  0
  3  4  2  0  0  0  0
  4  5  1  0  0  0  0
  4  9  1  0  0  0  0
  5 10  1  0  0  0  0
  6  5  2  0  0  0  0
  7  1  1  0  0  0  0
  8  2  1  0  0  0  0
 11  3  1  0  0  0  0
 11 12  2  0  0  0  0
 13 18  1  0  0  0  0
 14 13  2  0  0  0  0
 14 15  1  0  0  0  0
 15 16  2  0  0  0  0
 16 21  1  0  0  0  0
 16 17  1  0  0  0  0
 17 22  1  0  0  0  0
 18 17  2  0  0  0  0
 18 23  1  0  0  0  0
 19 13  1  0  0  0  0
 20 14  1  0  0  0  0
 23 24  1  0  0  0  0
 25 23  2  0  0  0  0
 26 23  2  0  0  0  0
 27 15  1  0  0  0  0
 27 28  1  0  0  0  0
 29 27  1  0  0  0  0
 30 27  1  0  0  0  0
 31  6  1  0  0  0  0
 31 32  1  0  0  0  0
 32 35  1  0  0  0  0
 33 32  1  0  0  0  0
 34 32  1  0  0  0  0
M  RAD  2  12   2  24   2
M  END
