Coordinates from ORCA-job p-CH3O-Ph-N2-OTs-B3LYP-6-31G_dp-scan-d09-49-n400
 OpenBabel02051708043D

 35 34  0  0  0  0  0  0  0  0999 V2000
   -0.3676    0.1973   -2.7074 C   0  0  0  0  0  0  0  0  0  0  0  0
    0.6377    0.9801   -2.1141 C   0  0  0  0  0  0  0  0  0  0  0  0
    0.2098    1.7992   -1.2364 C   0  0  0  0  0  0  0  0  0  0  0  0
   -0.9854    2.1649   -0.6921 C   0  0  0  0  0  0  0  0  0  0  0  0
   -2.0001    1.3840   -1.2830 C   0  0  0  0  0  0  0  0  0  0  0  0
   -1.6962    0.4181   -2.2722 C   0  0  0  0  0  0  0  0  0  0  0  0
   -0.1812   -0.5479   -3.4754 H   0  0  0  0  0  0  0  0  0  0  0  0
    2.3376    0.7530   -2.7244 H   0  0  0  0  0  0  0  0  0  0  0  0
   -1.1659    2.9168    0.0658 H   0  0  0  0  0  0  0  0  0  0  0  0
   -3.0218    1.5431   -0.9587 H   0  0  0  0  0  0  0  0  0  0  0  0
    1.7396    3.0291   -0.1924 N   0  0  0  0  0  0  0  0  0  0  0  0
    2.8132    3.1531    0.0438 N   0  0  0  0  0  0  0  0  0  0  0  0
    6.4701    1.6581   -2.9758 C   0  0  0  0  0  0  0  0  0  0  0  0
    7.7915    1.2604   -3.1690 C   0  0  0  0  0  0  0  0  0  0  0  0
    8.1924    0.6251   -4.3540 C   0  0  0  0  0  0  0  0  0  0  0  0
    7.2332    0.4063   -5.3540 C   0  0  0  0  0  0  0  0  0  0  0  0
    5.9074    0.7983   -5.1797 C   0  0  0  0  0  0  0  0  0  0  0  0
    5.5370    1.4169   -3.9850 C   0  0  0  0  0  0  0  0  0  0  0  0
    6.1626    2.1630   -2.0666 H   0  0  0  0  0  0  0  0  0  0  0  0
    8.5254    1.4530   -2.3904 H   0  0  0  0  0  0  0  0  0  0  0  0
    7.5303   -0.0708   -6.2844 H   0  0  0  0  0  0  0  0  0  0  0  0
    5.1688    0.6443   -5.9592 H   0  0  0  0  0  0  0  0  0  0  0  0
    3.8439    1.9320   -3.7548 S   0  0  0  0  0  0  0  0  0  0  0  0
    3.7970    3.0104   -2.7602 O   0  0  0  0  0  0  0  0  0  0  0  0
    3.2683    0.5772   -3.0789 O   0  0  0  0  0  0  0  0  0  0  0  0
    3.2222    2.1315   -5.0642 O   0  0  0  0  0  0  0  0  0  0  0  0
    9.6206    0.1711   -4.5414 C   0  0  0  0  0  0  0  0  0  0  0  0
   10.3200    0.8124   -3.9971 H   0  0  0  0  0  0  0  0  0  0  0  0
    9.7581   -0.8516   -4.1679 H   0  0  0  0  0  0  0  0  0  0  0  0
    9.9062    0.1724   -5.5976 H   0  0  0  0  0  0  0  0  0  0  0  0
   -2.6353   -0.3623   -2.8761 O   0  0  0  0  0  0  0  0  0  0  0  0
   -3.9989   -0.1970   -2.5183 C   0  0  0  0  0  0  0  0  0  0  0  0
   -4.5584   -0.9097   -3.1257 H   0  0  0  0  0  0  0  0  0  0  0  0
   -4.3536    0.8188   -2.7373 H   0  0  0  0  0  0  0  0  0  0  0  0
   -4.1683   -0.4188   -1.4563 H   0  0  0  0  0  0  0  0  0  0  0  0
  1  6  2  0  0  0  0
  1  2  1  0  0  0  0
  2  3  2  0  0  0  0
  3  4  1  0  0  0  0
  4  9  1  0  0  0  0
  5 10  1  0  0  0  0
  5  4  2  0  0  0  0
  6  5  1  0  0  0  0
  7  1  1  0  0  0  0
 11 12  3  0  0  0  0
 13 19  1  0  0  0  0
 14 13  1  0  0  0  0
 14 20  1  0  0  0  0
 15 14  2  0  0  0  0
 16 17  2  0  0  0  0
 16 15  1  0  0  0  0
 17 18  1  0  0  0  0
 18 23  1  0  0  0  0
 18 13  2  0  0  0  0
 21 16  1  0  0  0  0
 22 17  1  0  0  0  0
 23 25  1  0  0  0  0
 23 24  2  0  0  0  0
 25  8  1  0  0  0  0
 26 23  2  0  0  0  0
 27 15  1  0  0  0  0
 27 29  1  0  0  0  0
 27 28  1  0  0  0  0
 30 27  1  0  0  0  0
 31 32  1  0  0  0  0
 31  6  1  0  0  0  0
 32 35  1  0  0  0  0
 33 32  1  0  0  0  0
 34 32  1  0  0  0  0
M  RAD  2   2   2   3   2
M  END
