Coordinates from ORCA-job p-CH3O-Ph-N2-OTs-B3LYP-6-31G_dp-scan-d09-49-n400
 OpenBabel02051708043D

 35 35  0  0  0  0  0  0  0  0999 V2000
   -0.6468   -0.7278   -2.1969 C   0  0  0  0  0  0  0  0  0  0  0  0
    0.7071   -0.5993   -2.4772 C   0  0  0  0  0  0  0  0  0  0  0  0
    1.2402    0.6707   -2.7108 C   0  0  0  0  0  0  0  0  0  0  0  0
    0.4342    1.8029   -2.6765 C   0  0  0  0  0  0  0  0  0  0  0  0
   -0.9288    1.6757   -2.3955 C   0  0  0  0  0  0  0  0  0  0  0  0
   -1.4731    0.4073   -2.1541 C   0  0  0  0  0  0  0  0  0  0  0  0
   -1.0918   -1.6992   -2.0081 H   0  0  0  0  0  0  0  0  0  0  0  0
    1.3550   -1.4679   -2.5186 H   0  0  0  0  0  0  0  0  0  0  0  0
    0.8720    2.7759   -2.8702 H   0  0  0  0  0  0  0  0  0  0  0  0
   -1.5475    2.5650   -2.3713 H   0  0  0  0  0  0  0  0  0  0  0  0
    4.3708    2.2749   -0.1203 N   0  0  0  0  0  0  0  0  0  0  0  0
    4.8795    1.3168   -0.3323 N   0  0  0  0  0  0  0  0  0  0  0  0
    5.6559   -0.1658   -3.9041 C   0  0  0  0  0  0  0  0  0  0  0  0
    7.0140    0.0136   -3.6617 C   0  0  0  0  0  0  0  0  0  0  0  0
    7.6002    1.2891   -3.7178 C   0  0  0  0  0  0  0  0  0  0  0  0
    6.7872    2.3872   -4.0292 C   0  0  0  0  0  0  0  0  0  0  0  0
    5.4231    2.2293   -4.2736 C   0  0  0  0  0  0  0  0  0  0  0  0
    4.8715    0.9510   -4.2037 C   0  0  0  0  0  0  0  0  0  0  0  0
    5.2060   -1.1524   -3.8736 H   0  0  0  0  0  0  0  0  0  0  0  0
    7.6319   -0.8495   -3.4274 H   0  0  0  0  0  0  0  0  0  0  0  0
    7.2268    3.3793   -4.0855 H   0  0  0  0  0  0  0  0  0  0  0  0
    4.7950    3.0768   -4.5254 H   0  0  0  0  0  0  0  0  0  0  0  0
    3.1322    0.7352   -4.5166 S   0  0  0  0  0  0  0  0  0  0  0  0
    2.6239    0.8111   -2.9228 O   0  0  0  0  0  0  0  0  0  0  0  0
    2.8791   -0.6155   -5.0143 O   0  0  0  0  0  0  0  0  0  0  0  0
    2.6062    1.9005   -5.2251 O   0  0  0  0  0  0  0  0  0  0  0  0
    9.0767    1.4615   -3.4534 C   0  0  0  0  0  0  0  0  0  0  0  0
    9.6760    0.8957   -4.1757 H   0  0  0  0  0  0  0  0  0  0  0  0
    9.3765    2.5107   -3.5169 H   0  0  0  0  0  0  0  0  0  0  0  0
    9.3444    1.0935   -2.4564 H   0  0  0  0  0  0  0  0  0  0  0  0
   -2.7856    0.1690   -1.8686 O   0  0  0  0  0  0  0  0  0  0  0  0
   -3.6760    1.2729   -1.8261 C   0  0  0  0  0  0  0  0  0  0  0  0
   -4.6580    0.8593   -1.5907 H   0  0  0  0  0  0  0  0  0  0  0  0
   -3.7251    1.7910   -2.7929 H   0  0  0  0  0  0  0  0  0  0  0  0
   -3.3924    1.9931   -1.0472 H   0  0  0  0  0  0  0  0  0  0  0  0
  1  6  1  0  0  0  0
  1  7  1  0  0  0  0
  2  1  2  0  0  0  0
  3  4  2  0  0  0  0
  3  2  1  0  0  0  0
  4  5  1  0  0  0  0
  5 10  1  0  0  0  0
  5  6  2  0  0  0  0
  6 31  1  0  0  0  0
  8  2  1  0  0  0  0
  9  4  1  0  0  0  0
 12 11  3  0  0  0  0
 13 19  1  0  0  0  0
 13 14  2  0  0  0  0
 14 20  1  0  0  0  0
 15 14  1  0  0  0  0
 15 27  1  0  0  0  0
 16 15  2  0  0  0  0
 17 18  2  0  0  0  0
 17 16  1  0  0  0  0
 18 13  1  0  0  0  0
 21 16  1  0  0  0  0
 22 17  1  0  0  0  0
 23 18  1  0  0  0  0
 23 24  1  0  0  0  0
 24  3  1  0  0  0  0
 25 23  2  0  0  0  0
 26 23  2  0  0  0  0
 27 30  1  0  0  0  0
 28 27  1  0  0  0  0
 29 27  1  0  0  0  0
 31 32  1  0  0  0  0
 32 33  1  0  0  0  0
 32 35  1  0  0  0  0
 34 32  1  0  0  0  0
M  END
