Coordinates from ORCA-job p-CH3O-Ph-N2-OTs-B3LYP-6-31G_dp-scan-d09-49-n400
 OpenBabel02051708043D

 35 35  0  0  0  0  0  0  0  0999 V2000
   -0.5199    0.0548   -2.8046 C   0  0  0  0  0  0  0  0  0  0  0  0
    0.5646    0.9335   -2.8815 C   0  0  0  0  0  0  0  0  0  0  0  0
    0.3964    2.0286   -2.0888 C   0  0  0  0  0  0  0  0  0  0  0  0
   -0.6117    2.4109   -1.2493 C   0  0  0  0  0  0  0  0  0  0  0  0
   -1.6735    1.4946   -1.1978 C   0  0  0  0  0  0  0  0  0  0  0  0
   -1.6256    0.3211   -1.9723 C   0  0  0  0  0  0  0  0  0  0  0  0
   -0.5181   -0.8555   -3.3946 H   0  0  0  0  0  0  0  0  0  0  0  0
    1.4344    0.7616   -3.5283 H   0  0  0  0  0  0  0  0  0  0  0  0
   -0.6076    3.3280   -0.6746 H   0  0  0  0  0  0  0  0  0  0  0  0
   -2.5169    1.7174   -0.5556 H   0  0  0  0  0  0  0  0  0  0  0  0
    1.7803    3.3035   -2.1440 N   0  0  0  0  0  0  0  0  0  0  0  0
    2.0480    4.3702   -1.9720 N   0  0  0  0  0  0  0  0  0  0  0  0
    5.7688   -0.0018   -4.1948 C   0  0  0  0  0  0  0  0  0  0  0  0
    7.1042   -0.4031   -4.2215 C   0  0  0  0  0  0  0  0  0  0  0  0
    8.1446    0.5355   -4.1804 C   0  0  0  0  0  0  0  0  0  0  0  0
    7.8111    1.8973   -4.1235 C   0  0  0  0  0  0  0  0  0  0  0  0
    6.4812    2.3134   -4.0971 C   0  0  0  0  0  0  0  0  0  0  0  0
    5.4637    1.3581   -4.1297 C   0  0  0  0  0  0  0  0  0  0  0  0
    4.9638   -0.7269   -4.2470 H   0  0  0  0  0  0  0  0  0  0  0  0
    7.3428   -1.4626   -4.2838 H   0  0  0  0  0  0  0  0  0  0  0  0
    8.6041    2.6416   -4.1081 H   0  0  0  0  0  0  0  0  0  0  0  0
    6.2238    3.3674   -4.0748 H   0  0  0  0  0  0  0  0  0  0  0  0
    3.7495    1.8925   -4.0647 S   0  0  0  0  0  0  0  0  0  0  0  0
    3.4350    1.9087   -2.5681 O   0  0  0  0  0  0  0  0  0  0  0  0
    2.9532    0.8314   -4.7467 O   0  0  0  0  0  0  0  0  0  0  0  0
    3.6763    3.2416   -4.6593 O   0  0  0  0  0  0  0  0  0  0  0  0
    9.5895    0.0938   -4.1806 C   0  0  0  0  0  0  0  0  0  0  0  0
    9.9892    0.0463   -3.1595 H   0  0  0  0  0  0  0  0  0  0  0  0
    9.7040   -0.9011   -4.6217 H   0  0  0  0  0  0  0  0  0  0  0  0
   10.2218    0.7887   -4.7428 H   0  0  0  0  0  0  0  0  0  0  0  0
   -2.5993   -0.6183   -1.9887 O   0  0  0  0  0  0  0  0  0  0  0  0
   -3.7509   -0.4311   -1.1725 C   0  0  0  0  0  0  0  0  0  0  0  0
   -4.3831   -1.3026   -1.3467 H   0  0  0  0  0  0  0  0  0  0  0  0
   -4.2991    0.4766   -1.4552 H   0  0  0  0  0  0  0  0  0  0  0  0
   -3.4843   -0.3823   -0.1093 H   0  0  0  0  0  0  0  0  0  0  0  0
  1  6  1  0  0  0  0
  2  1  2  0  0  0  0
  2  3  1  0  0  0  0
  3  4  2  0  0  0  0
  4  5  1  0  0  0  0
  4  9  1  0  0  0  0
  5 10  1  0  0  0  0
  6  5  2  0  0  0  0
  7  1  1  0  0  0  0
  8  2  1  0  0  0  0
 11  3  1  0  0  0  0
 11 12  2  0  0  0  0
 13 18  1  0  0  0  0
 14 13  2  0  0  0  0
 14 15  1  0  0  0  0
 15 16  2  0  0  0  0
 16 21  1  0  0  0  0
 16 17  1  0  0  0  0
 17 22  1  0  0  0  0
 18 17  2  0  0  0  0
 18 23  1  0  0  0  0
 19 13  1  0  0  0  0
 20 14  1  0  0  0  0
 23 24  1  0  0  0  0
 25 23  2  0  0  0  0
 26 23  2  0  0  0  0
 27 15  1  0  0  0  0
 27 28  1  0  0  0  0
 29 27  1  0  0  0  0
 30 27  1  0  0  0  0
 31  6  1  0  0  0  0
 31 32  1  0  0  0  0
 32 35  1  0  0  0  0
 33 32  1  0  0  0  0
 34 32  1  0  0  0  0
M  RAD  2  12   2  24   2
M  END
