Coordinates from ORCA-job p-CH3O-Ph-N2-OTs-B3LYP-6-31G_dp-scan-d09-49-n400
 OpenBabel02051708043D

 35 35  0  0  0  0  0  0  0  0999 V2000
   -0.5697    0.0184   -2.7937 C   0  0  0  0  0  0  0  0  0  0  0  0
    0.5476    0.8464   -2.8841 C   0  0  0  0  0  0  0  0  0  0  0  0
    0.4678    1.9734   -2.1037 C   0  0  0  0  0  0  0  0  0  0  0  0
   -0.5405    2.3836   -1.2640 C   0  0  0  0  0  0  0  0  0  0  0  0
   -1.6410    1.5222   -1.1915 C   0  0  0  0  0  0  0  0  0  0  0  0
   -1.6549    0.3408   -1.9550 C   0  0  0  0  0  0  0  0  0  0  0  0
   -0.6169   -0.8959   -3.3752 H   0  0  0  0  0  0  0  0  0  0  0  0
    1.3957    0.6273   -3.5354 H   0  0  0  0  0  0  0  0  0  0  0  0
   -0.4964    3.3045   -0.6962 H   0  0  0  0  0  0  0  0  0  0  0  0
   -2.4679    1.7881   -0.5445 H   0  0  0  0  0  0  0  0  0  0  0  0
    1.8003    3.1090   -2.1734 N   0  0  0  0  0  0  0  0  0  0  0  0
    2.0902    4.1720   -1.9900 N   0  0  0  0  0  0  0  0  0  0  0  0
    5.8127   -0.0274   -4.2917 C   0  0  0  0  0  0  0  0  0  0  0  0
    7.1625   -0.3805   -4.2995 C   0  0  0  0  0  0  0  0  0  0  0  0
    8.1663    0.5884   -4.1687 C   0  0  0  0  0  0  0  0  0  0  0  0
    7.7828    1.9325   -4.0398 C   0  0  0  0  0  0  0  0  0  0  0  0
    6.4394    2.3007   -4.0314 C   0  0  0  0  0  0  0  0  0  0  0  0
    5.4580    1.3145   -4.1543 C   0  0  0  0  0  0  0  0  0  0  0  0
    5.0359   -0.7747   -4.4123 H   0  0  0  0  0  0  0  0  0  0  0  0
    7.4407   -1.4254   -4.4177 H   0  0  0  0  0  0  0  0  0  0  0  0
    8.5478    2.7009   -3.9527 H   0  0  0  0  0  0  0  0  0  0  0  0
    6.1443    3.3420   -3.9528 H   0  0  0  0  0  0  0  0  0  0  0  0
    3.7254    1.7839   -4.1180 S   0  0  0  0  0  0  0  0  0  0  0  0
    3.3848    1.7424   -2.6187 O   0  0  0  0  0  0  0  0  0  0  0  0
    2.9782    0.7228   -4.8426 O   0  0  0  0  0  0  0  0  0  0  0  0
    3.6158    3.1536   -4.6573 O   0  0  0  0  0  0  0  0  0  0  0  0
    9.6263    0.1998   -4.1530 C   0  0  0  0  0  0  0  0  0  0  0  0
   10.0269    0.2066   -3.1312 H   0  0  0  0  0  0  0  0  0  0  0  0
    9.7778   -0.8055   -4.5569 H   0  0  0  0  0  0  0  0  0  0  0  0
   10.2334    0.8961   -4.7412 H   0  0  0  0  0  0  0  0  0  0  0  0
   -2.6705   -0.5527   -1.9547 O   0  0  0  0  0  0  0  0  0  0  0  0
   -3.8090   -0.3026   -1.1367 C   0  0  0  0  0  0  0  0  0  0  0  0
   -4.4827   -1.1448   -1.3002 H   0  0  0  0  0  0  0  0  0  0  0  0
   -4.3140    0.6272   -1.4270 H   0  0  0  0  0  0  0  0  0  0  0  0
   -3.5368   -0.2558   -0.0750 H   0  0  0  0  0  0  0  0  0  0  0  0
  1  6  1  0  0  0  0
  2  1  2  0  0  0  0
  2  3  1  0  0  0  0
  3  4  2  0  0  0  0
  4  5  1  0  0  0  0
  4  9  1  0  0  0  0
  5 10  1  0  0  0  0
  6 31  1  0  0  0  0
  6  5  2  0  0  0  0
  7  1  1  0  0  0  0
  8  2  1  0  0  0  0
 11  3  1  0  0  0  0
 11 12  2  0  0  0  0
 13 18  1  0  0  0  0
 14 13  2  0  0  0  0
 14 15  1  0  0  0  0
 15 27  1  0  0  0  0
 15 16  2  0  0  0  0
 16 17  1  0  0  0  0
 16 21  1  0  0  0  0
 17 22  1  0  0  0  0
 18 23  1  0  0  0  0
 18 17  2  0  0  0  0
 19 13  1  0  0  0  0
 20 14  1  0  0  0  0
 23 24  1  0  0  0  0
 25 23  2  0  0  0  0
 26 23  2  0  0  0  0
 27 28  1  0  0  0  0
 29 27  1  0  0  0  0
 30 27  1  0  0  0  0
 31 32  1  0  0  0  0
 32 35  1  0  0  0  0
 33 32  1  0  0  0  0
 34 32  1  0  0  0  0
M  RAD  2  12   2  24   2
M  END
