Coordinates from ORCA-job p-CH3O-Ph-N2-OTs-B3LYP-6-31G_dp-scan-d09-49-n400
 OpenBabel02051708043D

 35 36  0  0  1  0  0  0  0  0999 V2000
    0.0846    0.5533   -3.3409 C   0  0  0  0  0  0  0  0  0  0  0  0
    0.8104    1.7795   -3.7228 C   0  0  1  0  0  0  0  0  0  0  0  0
    0.4833    2.9035   -2.8025 C   0  0  0  0  0  0  0  0  0  0  0  0
   -0.0619    2.7021   -1.4947 C   0  0  0  0  0  0  0  0  0  0  0  0
   -0.5102    1.4690   -1.1383 C   0  0  0  0  0  0  0  0  0  0  0  0
   -0.4701    0.3909   -2.1082 C   0  0  0  0  0  0  0  0  0  0  0  0
    0.0672   -0.2679   -4.0480 H   0  0  0  0  0  0  0  0  0  0  0  0
    0.6771    2.0349   -4.7757 H   0  0  0  0  0  0  0  0  0  0  0  0
   -0.1161    3.5421   -0.8093 H   0  0  0  0  0  0  0  0  0  0  0  0
   -0.9146    1.3090   -0.1476 H   0  0  0  0  0  0  0  0  0  0  0  0
    0.8005    4.1593   -3.1871 N   0  0  0  0  0  0  0  0  0  0  0  0
    1.0669    5.2118   -3.5181 N   0  0  0  0  0  0  0  0  0  0  0  0
    5.1752    0.0084   -4.6914 C   0  0  0  0  0  0  0  0  0  0  0  0
    6.4046   -0.5041   -4.2820 C   0  0  0  0  0  0  0  0  0  0  0  0
    7.2861    0.2595   -3.5028 C   0  0  0  0  0  0  0  0  0  0  0  0
    6.9091    1.5640   -3.1477 C   0  0  0  0  0  0  0  0  0  0  0  0
    5.6839    2.0940   -3.5461 C   0  0  0  0  0  0  0  0  0  0  0  0
    4.8245    1.3049   -4.3124 C   0  0  0  0  0  0  0  0  0  0  0  0
    4.5000   -0.5760   -5.3075 H   0  0  0  0  0  0  0  0  0  0  0  0
    6.6880   -1.5104   -4.5785 H   0  0  0  0  0  0  0  0  0  0  0  0
    7.5880    2.1754   -2.5581 H   0  0  0  0  0  0  0  0  0  0  0  0
    5.3983    3.1072   -3.2859 H   0  0  0  0  0  0  0  0  0  0  0  0
    3.2567    1.9723   -4.8376 S   0  0  0  0  0  0  0  0  0  0  0  0
    2.3356    1.4536   -3.6040 O   0  0  0  0  0  0  0  0  0  0  0  0
    2.8267    1.3051   -6.0712 O   0  0  0  0  0  0  0  0  0  0  0  0
    3.3139    3.4401   -4.8058 O   0  0  0  0  0  0  0  0  0  0  0  0
    8.6052   -0.3130   -3.0413 C   0  0  0  0  0  0  0  0  0  0  0  0
    8.5254   -0.7047   -2.0195 H   0  0  0  0  0  0  0  0  0  0  0  0
    8.9313   -1.1367   -3.6829 H   0  0  0  0  0  0  0  0  0  0  0  0
    9.3918    0.4483   -3.0356 H   0  0  0  0  0  0  0  0  0  0  0  0
   -1.0165   -0.8318   -1.8418 O   0  0  0  0  0  0  0  0  0  0  0  0
   -1.7694   -1.0213   -0.6521 C   0  0  0  0  0  0  0  0  0  0  0  0
   -2.1555   -2.0405   -0.7065 H   0  0  0  0  0  0  0  0  0  0  0  0
   -2.6127   -0.3228   -0.5833 H   0  0  0  0  0  0  0  0  0  0  0  0
   -1.1473   -0.9273    0.2471 H   0  0  0  0  0  0  0  0  0  0  0  0
  1  6  1  0  0  0  0
  2  8  1  6  0  0  0
  2 24  1  0  0  0  0
  2  1  1  0  0  0  0
  2  3  1  0  0  0  0
  3  4  2  0  0  0  0
  4  5  1  0  0  0  0
  4  9  1  0  0  0  0
  5 10  1  0  0  0  0
  6 31  1  0  0  0  0
  6  5  2  0  0  0  0
  7  1  1  0  0  0  0
 11  3  1  0  0  0  0
 12 11  1  0  0  0  0
 13 18  2  0  0  0  0
 13 14  1  0  0  0  0
 14 15  2  0  0  0  0
 15 16  1  0  0  0  0
 15 27  1  0  0  0  0
 16 21  1  0  0  0  0
 17 22  1  0  0  0  0
 17 16  2  0  0  0  0
 18 17  1  0  0  0  0
 19 13  1  0  0  0  0
 20 14  1  0  0  0  0
 23 26  2  0  0  0  0
 23 18  1  0  0  0  0
 23 24  1  0  0  0  0
 25 23  2  0  0  0  0
 27 30  1  0  0  0  0
 27 28  1  0  0  0  0
 29 27  1  0  0  0  0
 31 32  1  0  0  0  0
 32 34  1  0  0  0  0
 32 35  1  0  0  0  0
 33 32  1  0  0  0  0
M  RAD  3   1   2  11   2  12   3
M  END
