Coordinates from ORCA-job p-CH3O-Ph-N2-OTs-B3LYP-6-31G_dp-scan-d09-49-n400
 OpenBabel02051708043D

 35 34  0  0  0  0  0  0  0  0999 V2000
   -0.6256   -0.1693   -2.7993 C   0  0  0  0  0  0  0  0  0  0  0  0
    0.4565    0.5985   -2.3636 C   0  0  0  0  0  0  0  0  0  0  0  0
    0.2318    1.5705   -1.5958 C   0  0  0  0  0  0  0  0  0  0  0  0
   -0.8745    2.1399   -1.0317 C   0  0  0  0  0  0  0  0  0  0  0  0
   -2.0004    1.3924   -1.4481 C   0  0  0  0  0  0  0  0  0  0  0  0
   -1.8816    0.2710   -2.3065 C   0  0  0  0  0  0  0  0  0  0  0  0
   -0.5759   -1.0285   -3.4599 H   0  0  0  0  0  0  0  0  0  0  0  0
    2.3655    0.4385   -2.9360 H   0  0  0  0  0  0  0  0  0  0  0  0
   -0.9321    3.0022   -0.3801 H   0  0  0  0  0  0  0  0  0  0  0  0
   -2.9744    1.7016   -1.0869 H   0  0  0  0  0  0  0  0  0  0  0  0
    2.3490    3.5382    0.1098 N   0  0  0  0  0  0  0  0  0  0  0  0
    3.3958    3.6163    0.4552 N   0  0  0  0  0  0  0  0  0  0  0  0
    6.4369    1.4957   -2.8990 C   0  0  0  0  0  0  0  0  0  0  0  0
    7.7780    1.1690   -3.0844 C   0  0  0  0  0  0  0  0  0  0  0  0
    8.2498    0.7150   -4.3260 C   0  0  0  0  0  0  0  0  0  0  0  0
    7.3415    0.6059   -5.3888 C   0  0  0  0  0  0  0  0  0  0  0  0
    5.9957    0.9285   -5.2233 C   0  0  0  0  0  0  0  0  0  0  0  0
    5.5555    1.3657   -3.9738 C   0  0  0  0  0  0  0  0  0  0  0  0
    6.0749    1.8623   -1.9445 H   0  0  0  0  0  0  0  0  0  0  0  0
    8.4718    1.2742   -2.2541 H   0  0  0  0  0  0  0  0  0  0  0  0
    7.6939    0.2693   -6.3603 H   0  0  0  0  0  0  0  0  0  0  0  0
    5.2950    0.8587   -6.0485 H   0  0  0  0  0  0  0  0  0  0  0  0
    3.8381    1.7903   -3.7532 S   0  0  0  0  0  0  0  0  0  0  0  0
    3.7063    2.7418   -2.6464 O   0  0  0  0  0  0  0  0  0  0  0  0
    3.3010    0.3351   -3.2504 O   0  0  0  0  0  0  0  0  0  0  0  0
    3.2458    2.1019   -5.0535 O   0  0  0  0  0  0  0  0  0  0  0  0
    9.7006    0.3368   -4.5062 C   0  0  0  0  0  0  0  0  0  0  0  0
   10.3590    0.9804   -3.9154 H   0  0  0  0  0  0  0  0  0  0  0  0
    9.8784   -0.6960   -4.1806 H   0  0  0  0  0  0  0  0  0  0  0  0
   10.0054    0.4060   -5.5544 H   0  0  0  0  0  0  0  0  0  0  0  0
   -2.9462   -0.4694   -2.7280 O   0  0  0  0  0  0  0  0  0  0  0  0
   -4.2525   -0.0892   -2.3221 C   0  0  0  0  0  0  0  0  0  0  0  0
   -4.9322   -0.8050   -2.7865 H   0  0  0  0  0  0  0  0  0  0  0  0
   -4.5036    0.9223   -2.6668 H   0  0  0  0  0  0  0  0  0  0  0  0
   -4.3670   -0.1389   -1.2310 H   0  0  0  0  0  0  0  0  0  0  0  0
  1  2  2  0  0  0  0
  1  6  1  0  0  0  0
  2  3  1  0  0  0  0
  3  4  2  0  0  0  0
  4  9  1  0  0  0  0
  5 10  1  0  0  0  0
  5  4  1  0  0  0  0
  6  5  2  0  0  0  0
  7  1  1  0  0  0  0
 11 12  3  0  0  0  0
 13 19  1  0  0  0  0
 14 13  1  0  0  0  0
 14 20  1  0  0  0  0
 15 14  2  0  0  0  0
 16 17  2  0  0  0  0
 16 15  1  0  0  0  0
 17 18  1  0  0  0  0
 18 23  1  0  0  0  0
 18 13  2  0  0  0  0
 21 16  1  0  0  0  0
 22 17  1  0  0  0  0
 23 25  1  0  0  0  0
 23 24  2  0  0  0  0
 25  8  1  0  0  0  0
 26 23  2  0  0  0  0
 27 15  1  0  0  0  0
 27 29  1  0  0  0  0
 27 28  1  0  0  0  0
 30 27  1  0  0  0  0
 31 32  1  0  0  0  0
 31  6  1  0  0  0  0
 32 35  1  0  0  0  0
 33 32  1  0  0  0  0
 34 32  1  0  0  0  0
M  RAD  2   2   2   3   2
M  END
