Coordinates from ORCA-job p-CH3O-Ph-N2-OTs-B3LYP-6-31G_dp-scan-d09-49-n400
 OpenBabel02051708043D

 35 34  0  0  0  0  0  0  0  0999 V2000
   -0.3549    0.2004   -2.6949 C   0  0  0  0  0  0  0  0  0  0  0  0
    0.6485    0.9866   -2.1021 C   0  0  0  0  0  0  0  0  0  0  0  0
    0.2123    1.8091   -1.2287 C   0  0  0  0  0  0  0  0  0  0  0  0
   -0.9883    2.1734   -0.6947 C   0  0  0  0  0  0  0  0  0  0  0  0
   -1.9987    1.3885   -1.2862 C   0  0  0  0  0  0  0  0  0  0  0  0
   -1.6866    0.4189   -2.2690 C   0  0  0  0  0  0  0  0  0  0  0  0
   -0.1629   -0.5477   -3.4587 H   0  0  0  0  0  0  0  0  0  0  0  0
    2.3354    0.7557   -2.7112 H   0  0  0  0  0  0  0  0  0  0  0  0
   -1.1748    2.9284    0.0588 H   0  0  0  0  0  0  0  0  0  0  0  0
   -3.0223    1.5469   -0.9678 H   0  0  0  0  0  0  0  0  0  0  0  0
    1.7122    3.0234   -0.2078 N   0  0  0  0  0  0  0  0  0  0  0  0
    2.7844    3.1519    0.0330 N   0  0  0  0  0  0  0  0  0  0  0  0
    6.4722    1.6546   -2.9719 C   0  0  0  0  0  0  0  0  0  0  0  0
    7.7923    1.2553   -3.1703 C   0  0  0  0  0  0  0  0  0  0  0  0
    8.1884    0.6221   -4.3581 C   0  0  0  0  0  0  0  0  0  0  0  0
    7.2257    0.4072   -5.3555 C   0  0  0  0  0  0  0  0  0  0  0  0
    5.9010    0.8010   -5.1759 C   0  0  0  0  0  0  0  0  0  0  0  0
    5.5355    1.4174   -3.9786 C   0  0  0  0  0  0  0  0  0  0  0  0
    6.1684    2.1578   -2.0605 H   0  0  0  0  0  0  0  0  0  0  0  0
    8.5291    1.4447   -2.3936 H   0  0  0  0  0  0  0  0  0  0  0  0
    7.5191   -0.0684   -6.2878 H   0  0  0  0  0  0  0  0  0  0  0  0
    5.1594    0.6501   -5.9532 H   0  0  0  0  0  0  0  0  0  0  0  0
    3.8436    1.9342   -3.7417 S   0  0  0  0  0  0  0  0  0  0  0  0
    3.8026    3.0088   -2.7424 O   0  0  0  0  0  0  0  0  0  0  0  0
    3.2665    0.5792   -3.0703 O   0  0  0  0  0  0  0  0  0  0  0  0
    3.2197    2.1416   -5.0488 O   0  0  0  0  0  0  0  0  0  0  0  0
    9.6154    0.1667   -4.5512 C   0  0  0  0  0  0  0  0  0  0  0  0
   10.3179    0.8081   -4.0111 H   0  0  0  0  0  0  0  0  0  0  0  0
    9.7536   -0.8556   -4.1770 H   0  0  0  0  0  0  0  0  0  0  0  0
    9.8965    0.1664   -5.6086 H   0  0  0  0  0  0  0  0  0  0  0  0
   -2.6200   -0.3667   -2.8747 O   0  0  0  0  0  0  0  0  0  0  0  0
   -3.9864   -0.2021   -2.5269 C   0  0  0  0  0  0  0  0  0  0  0  0
   -4.5404   -0.9187   -3.1348 H   0  0  0  0  0  0  0  0  0  0  0  0
   -4.3414    0.8119   -2.7529 H   0  0  0  0  0  0  0  0  0  0  0  0
   -4.1627   -0.4194   -1.4650 H   0  0  0  0  0  0  0  0  0  0  0  0
  1  6  2  0  0  0  0
  1  2  1  0  0  0  0
  2  3  2  0  0  0  0
  3  4  1  0  0  0  0
  4  9  1  0  0  0  0
  5 10  1  0  0  0  0
  5  4  2  0  0  0  0
  6  5  1  0  0  0  0
  7  1  1  0  0  0  0
 11 12  3  0  0  0  0
 13 19  1  0  0  0  0
 14 13  1  0  0  0  0
 14 20  1  0  0  0  0
 15 14  2  0  0  0  0
 16 17  2  0  0  0  0
 16 15  1  0  0  0  0
 17 18  1  0  0  0  0
 18 23  1  0  0  0  0
 18 13  2  0  0  0  0
 21 16  1  0  0  0  0
 22 17  1  0  0  0  0
 23 25  1  0  0  0  0
 23 24  2  0  0  0  0
 25  8  1  0  0  0  0
 26 23  2  0  0  0  0
 27 15  1  0  0  0  0
 27 29  1  0  0  0  0
 27 28  1  0  0  0  0
 30 27  1  0  0  0  0
 31 32  1  0  0  0  0
 31  6  1  0  0  0  0
 32 35  1  0  0  0  0
 33 32  1  0  0  0  0
 34 32  1  0  0  0  0
M  RAD  2   2   2   3   2
M  END
