Coordinates from ORCA-job p-CH3O-Ph-N2-OTs-B3LYP-6-31G_dp-scan-d09-49-n400
 OpenBabel02051708043D

 35 35  0  0  0  0  0  0  0  0999 V2000
   -0.4773   -0.0041   -2.5705 C   0  0  0  0  0  0  0  0  0  0  0  0
    0.4009    0.9173   -3.1139 C   0  0  0  0  0  0  0  0  0  0  0  0
    0.1546    2.2583   -2.7975 C   0  0  0  0  0  0  0  0  0  0  0  0
   -0.8859    2.7134   -1.9908 C   0  0  0  0  0  0  0  0  0  0  0  0
   -1.7438    1.7654   -1.4479 C   0  0  0  0  0  0  0  0  0  0  0  0
   -1.5408    0.4009   -1.7371 C   0  0  0  0  0  0  0  0  0  0  0  0
   -0.3528   -1.0628   -2.7702 H   0  0  0  0  0  0  0  0  0  0  0  0
    1.2406    0.6254   -3.7461 H   0  0  0  0  0  0  0  0  0  0  0  0
   -1.0166    3.7704   -1.7882 H   0  0  0  0  0  0  0  0  0  0  0  0
   -2.5573    2.0904   -0.8119 H   0  0  0  0  0  0  0  0  0  0  0  0
    1.0489    3.3174   -3.3746 N   0  0  0  0  0  0  0  0  0  0  0  0
    1.7750    4.0135   -3.8691 N   0  0  0  0  0  0  0  0  0  0  0  0
    6.0030    0.5074   -5.1219 C   0  0  0  0  0  0  0  0  0  0  0  0
    7.3628    0.2003   -5.1362 C   0  0  0  0  0  0  0  0  0  0  0  0
    8.1948    0.5414   -4.0599 C   0  0  0  0  0  0  0  0  0  0  0  0
    7.6254    1.2033   -2.9624 C   0  0  0  0  0  0  0  0  0  0  0  0
    6.2674    1.5178   -2.9356 C   0  0  0  0  0  0  0  0  0  0  0  0
    5.4598    1.1679   -4.0187 C   0  0  0  0  0  0  0  0  0  0  0  0
    5.3579    0.2301   -5.9491 H   0  0  0  0  0  0  0  0  0  0  0  0
    7.7860   -0.3146   -5.9960 H   0  0  0  0  0  0  0  0  0  0  0  0
    8.2543    1.4746   -2.1172 H   0  0  0  0  0  0  0  0  0  0  0  0
    5.8230    2.0178   -2.0813 H   0  0  0  0  0  0  0  0  0  0  0  0
    3.7218    1.6163   -4.0113 S   0  0  0  0  0  0  0  0  0  0  0  0
    3.2982    1.6955   -2.5847 O   0  0  0  0  0  0  0  0  0  0  0  0
    3.0122    0.5562   -4.7844 O   0  0  0  0  0  0  0  0  0  0  0  0
    3.6444    2.9682   -4.6832 O   0  0  0  0  0  0  0  0  0  0  0  0
    9.6610    0.1756   -4.0676 C   0  0  0  0  0  0  0  0  0  0  0  0
    9.8272   -0.8057   -3.6038 H   0  0  0  0  0  0  0  0  0  0  0  0
   10.0561    0.1228   -5.0868 H   0  0  0  0  0  0  0  0  0  0  0  0
   10.2590    0.9023   -3.5086 H   0  0  0  0  0  0  0  0  0  0  0  0
   -2.3146   -0.5948   -1.2642 O   0  0  0  0  0  0  0  0  0  0  0  0
   -3.4085   -0.2818   -0.4030 C   0  0  0  0  0  0  0  0  0  0  0  0
   -3.8682   -1.2374   -0.1516 H   0  0  0  0  0  0  0  0  0  0  0  0
   -4.1441    0.3545   -0.9096 H   0  0  0  0  0  0  0  0  0  0  0  0
   -3.0639    0.2087    0.5147 H   0  0  0  0  0  0  0  0  0  0  0  0
  1  6  2  0  0  0  0
  2  3  2  0  0  0  0
  2  1  1  0  0  0  0
  3  4  1  0  0  0  0
  4  9  1  0  0  0  0
  4  5  2  0  0  0  0
  5 10  1  0  0  0  0
  6  5  1  0  0  0  0
  6 31  1  0  0  0  0
  7  1  1  0  0  0  0
  8  2  1  0  0  0  0
 11  3  1  0  0  0  0
 12 11  1  0  0  0  0
 13 18  1  0  0  0  0
 14 13  2  0  0  0  0
 14 15  1  0  0  0  0
 15 16  2  0  0  0  0
 16 17  1  0  0  0  0
 16 21  1  0  0  0  0
 17 22  1  0  0  0  0
 18 23  1  0  0  0  0
 18 17  2  0  0  0  0
 19 13  1  0  0  0  0
 20 14  1  0  0  0  0
 23 24  1  0  0  0  0
 25 23  2  0  0  0  0
 26 23  2  0  0  0  0
 27 15  1  0  0  0  0
 27 28  1  0  0  0  0
 27 30  1  0  0  0  0
 29 27  1  0  0  0  0
 31 32  1  0  0  0  0
 32 33  1  0  0  0  0
 32 35  1  0  0  0  0
 34 32  1  0  0  0  0
M  RAD  3  11   2  12   3  24   2
M  END
