Coordinates from ORCA-job p-CH3O-Ph-N2-OTs-B3LYP-6-31G_dp-scan-d09-49-n400
 OpenBabel02051708043D

 35 34  0  0  0  0  0  0  0  0999 V2000
   -0.5511   -0.0304   -2.7938 C   0  0  0  0  0  0  0  0  0  0  0  0
    0.4965    0.7448   -2.2878 C   0  0  0  0  0  0  0  0  0  0  0  0
    0.2096    1.6515   -1.4607 C   0  0  0  0  0  0  0  0  0  0  0  0
   -0.9265    2.1376   -0.8808 C   0  0  0  0  0  0  0  0  0  0  0  0
   -2.0139    1.3766   -1.3690 C   0  0  0  0  0  0  0  0  0  0  0  0
   -1.8331    0.3228   -2.2990 C   0  0  0  0  0  0  0  0  0  0  0  0
   -0.4541   -0.8390   -3.5110 H   0  0  0  0  0  0  0  0  0  0  0  0
    2.3630    0.5759   -2.8786 H   0  0  0  0  0  0  0  0  0  0  0  0
   -1.0288    2.9505   -0.1735 H   0  0  0  0  0  0  0  0  0  0  0  0
   -3.0060    1.6220   -1.0079 H   0  0  0  0  0  0  0  0  0  0  0  0
    2.1728    3.3797    0.0195 N   0  0  0  0  0  0  0  0  0  0  0  0
    3.2244    3.4639    0.3482 N   0  0  0  0  0  0  0  0  0  0  0  0
    6.4500    1.5682   -2.9387 C   0  0  0  0  0  0  0  0  0  0  0  0
    7.7848    1.2109   -3.1143 C   0  0  0  0  0  0  0  0  0  0  0  0
    8.2400    0.6786   -4.3305 C   0  0  0  0  0  0  0  0  0  0  0  0
    7.3215    0.5219   -5.3789 C   0  0  0  0  0  0  0  0  0  0  0  0
    5.9822    0.8745   -5.2230 C   0  0  0  0  0  0  0  0  0  0  0  0
    5.5583    1.3900   -3.9978 C   0  0  0  0  0  0  0  0  0  0  0  0
    6.1008    1.9944   -2.0045 H   0  0  0  0  0  0  0  0  0  0  0  0
    8.4869    1.3540   -2.2966 H   0  0  0  0  0  0  0  0  0  0  0  0
    7.6611    0.1248   -6.3319 H   0  0  0  0  0  0  0  0  0  0  0  0
    5.2744    0.7684   -6.0382 H   0  0  0  0  0  0  0  0  0  0  0  0
    3.8495    1.8551   -3.7899 S   0  0  0  0  0  0  0  0  0  0  0  0
    3.7409    2.8616   -2.7300 O   0  0  0  0  0  0  0  0  0  0  0  0
    3.2886    0.4370   -3.2149 O   0  0  0  0  0  0  0  0  0  0  0  0
    3.2569    2.1139   -5.1016 O   0  0  0  0  0  0  0  0  0  0  0  0
    9.6833    0.2679   -4.4998 C   0  0  0  0  0  0  0  0  0  0  0  0
   10.3535    0.9101   -3.9209 H   0  0  0  0  0  0  0  0  0  0  0  0
    9.8397   -0.7616   -4.1535 H   0  0  0  0  0  0  0  0  0  0  0  0
    9.9912    0.3092   -5.5487 H   0  0  0  0  0  0  0  0  0  0  0  0
   -2.8578   -0.4294   -2.7919 O   0  0  0  0  0  0  0  0  0  0  0  0
   -4.1848   -0.1379   -2.3807 C   0  0  0  0  0  0  0  0  0  0  0  0
   -4.8253   -0.8491   -2.9041 H   0  0  0  0  0  0  0  0  0  0  0  0
   -4.4781    0.8830   -2.6580 H   0  0  0  0  0  0  0  0  0  0  0  0
   -4.3105   -0.2694   -1.2976 H   0  0  0  0  0  0  0  0  0  0  0  0
  1  6  2  0  0  0  0
  1  2  1  0  0  0  0
  2  3  2  0  0  0  0
  3  4  1  0  0  0  0
  4  9  1  0  0  0  0
  5 10  1  0  0  0  0
  5  4  2  0  0  0  0
  6  5  1  0  0  0  0
  7  1  1  0  0  0  0
 11 12  3  0  0  0  0
 13 19  1  0  0  0  0
 14 13  1  0  0  0  0
 14 20  1  0  0  0  0
 15 14  2  0  0  0  0
 16 17  2  0  0  0  0
 16 15  1  0  0  0  0
 17 18  1  0  0  0  0
 18 23  1  0  0  0  0
 18 13  2  0  0  0  0
 21 16  1  0  0  0  0
 22 17  1  0  0  0  0
 23 25  1  0  0  0  0
 23 24  2  0  0  0  0
 25  8  1  0  0  0  0
 26 23  2  0  0  0  0
 27 15  1  0  0  0  0
 27 29  1  0  0  0  0
 27 28  1  0  0  0  0
 30 27  1  0  0  0  0
 31 32  1  0  0  0  0
 31  6  1  0  0  0  0
 32 35  1  0  0  0  0
 33 32  1  0  0  0  0
 34 32  1  0  0  0  0
M  RAD  2   2   2   3   2
M  END
