Coordinates from ORCA-job p-CH3O-Ph-N2-OTs-B3LYP-6-31G_dp-scan-d09-49-n400
 OpenBabel02051708043D

 35 35  0  0  0  0  0  0  0  0999 V2000
   -0.6260   -0.7192   -2.2070 C   0  0  0  0  0  0  0  0  0  0  0  0
    0.7278   -0.6040   -2.4937 C   0  0  0  0  0  0  0  0  0  0  0  0
    1.2756    0.6625   -2.7123 C   0  0  0  0  0  0  0  0  0  0  0  0
    0.4844    1.8041   -2.6560 C   0  0  0  0  0  0  0  0  0  0  0  0
   -0.8782    1.6904   -2.3676 C   0  0  0  0  0  0  0  0  0  0  0  0
   -1.4373    0.4256   -2.1419 C   0  0  0  0  0  0  0  0  0  0  0  0
   -1.0823   -1.6876   -2.0299 H   0  0  0  0  0  0  0  0  0  0  0  0
    1.3642   -1.4800   -2.5519 H   0  0  0  0  0  0  0  0  0  0  0  0
    0.9335    2.7744   -2.8371 H   0  0  0  0  0  0  0  0  0  0  0  0
   -1.4852    2.5872   -2.3257 H   0  0  0  0  0  0  0  0  0  0  0  0
    3.7395    2.1305   -0.0732 N   0  0  0  0  0  0  0  0  0  0  0  0
    4.3881    1.2367   -0.1202 N   0  0  0  0  0  0  0  0  0  0  0  0
    5.6993   -0.1737   -3.9249 C   0  0  0  0  0  0  0  0  0  0  0  0
    7.0576    0.0208   -3.6942 C   0  0  0  0  0  0  0  0  0  0  0  0
    7.6297    1.3022   -3.7588 C   0  0  0  0  0  0  0  0  0  0  0  0
    6.8029    2.3905   -4.0688 C   0  0  0  0  0  0  0  0  0  0  0  0
    5.4389    2.2174   -4.3020 C   0  0  0  0  0  0  0  0  0  0  0  0
    4.9010    0.9337   -4.2224 C   0  0  0  0  0  0  0  0  0  0  0  0
    5.2602   -1.1649   -3.8887 H   0  0  0  0  0  0  0  0  0  0  0  0
    7.6866   -0.8352   -3.4637 H   0  0  0  0  0  0  0  0  0  0  0  0
    7.2318    3.3868   -4.1340 H   0  0  0  0  0  0  0  0  0  0  0  0
    4.8005    3.0570   -4.5544 H   0  0  0  0  0  0  0  0  0  0  0  0
    3.1624    0.6987   -4.5260 S   0  0  0  0  0  0  0  0  0  0  0  0
    2.6594    0.7905   -2.9311 O   0  0  0  0  0  0  0  0  0  0  0  0
    2.9198   -0.6607   -5.0054 O   0  0  0  0  0  0  0  0  0  0  0  0
    2.6230    1.8500   -5.2469 O   0  0  0  0  0  0  0  0  0  0  0  0
    9.1040    1.4935   -3.4953 C   0  0  0  0  0  0  0  0  0  0  0  0
    9.7086    0.8269   -4.1194 H   0  0  0  0  0  0  0  0  0  0  0  0
    9.4180    2.5212   -3.6957 H   0  0  0  0  0  0  0  0  0  0  0  0
    9.3490    1.2662   -2.4509 H   0  0  0  0  0  0  0  0  0  0  0  0
   -2.7510    0.2000   -1.8515 O   0  0  0  0  0  0  0  0  0  0  0  0
   -3.6271    1.3142   -1.7883 C   0  0  0  0  0  0  0  0  0  0  0  0
   -4.6129    0.9096   -1.5527 H   0  0  0  0  0  0  0  0  0  0  0  0
   -3.6753    1.8463   -2.7475 H   0  0  0  0  0  0  0  0  0  0  0  0
   -3.3301    2.0199   -1.0012 H   0  0  0  0  0  0  0  0  0  0  0  0
  1  6  1  0  0  0  0
  1  7  1  0  0  0  0
  2  1  2  0  0  0  0
  3  4  2  0  0  0  0
  3  2  1  0  0  0  0
  4  5  1  0  0  0  0
  5 10  1  0  0  0  0
  5  6  2  0  0  0  0
  6 31  1  0  0  0  0
  8  2  1  0  0  0  0
  9  4  1  0  0  0  0
 12 11  3  0  0  0  0
 13 19  1  0  0  0  0
 13 14  2  0  0  0  0
 14 20  1  0  0  0  0
 15 14  1  0  0  0  0
 15 27  1  0  0  0  0
 16 15  2  0  0  0  0
 17 18  2  0  0  0  0
 17 16  1  0  0  0  0
 18 13  1  0  0  0  0
 21 16  1  0  0  0  0
 22 17  1  0  0  0  0
 23 18  1  0  0  0  0
 23 24  1  0  0  0  0
 24  3  1  0  0  0  0
 25 23  2  0  0  0  0
 26 23  2  0  0  0  0
 27 30  1  0  0  0  0
 28 27  1  0  0  0  0
 29 27  1  0  0  0  0
 31 32  1  0  0  0  0
 32 33  1  0  0  0  0
 32 35  1  0  0  0  0
 34 32  1  0  0  0  0
M  END
