Coordinates from ORCA-job p-CH3O-Ph-N2-OTs-B3LYP-6-31G_dp-scan-d09-49-n400
 OpenBabel02051708043D

 35 36  0  0  1  0  0  0  0  0999 V2000
    0.0707    0.5398   -3.3376 C   0  0  0  0  0  0  0  0  0  0  0  0
    0.7849    1.7628   -3.7361 C   0  0  1  0  0  0  0  0  0  0  0  0
    0.4411    2.8748   -2.8297 C   0  0  1  0  0  0  0  0  0  0  0  0
   -0.1015    2.7124   -1.5262 C   0  0  0  0  0  0  0  0  0  0  0  0
   -0.5418    1.4789   -1.1476 C   0  0  0  0  0  0  0  0  0  0  0  0
   -0.4847    0.3900   -2.1000 C   0  0  0  0  0  0  0  0  0  0  0  0
    0.0592   -0.2928   -4.0312 H   0  0  0  0  0  0  0  0  0  0  0  0
    0.6762    1.9982   -4.7955 H   0  0  0  0  0  0  0  0  0  0  0  0
   -0.1658    3.5660   -0.8593 H   0  0  0  0  0  0  0  0  0  0  0  0
   -0.9505    1.3330   -0.1569 H   0  0  0  0  0  0  0  0  0  0  0  0
    0.7934    4.1998   -3.2406 N   0  0  0  0  0  0  0  0  0  0  0  0
    1.0696    5.2422   -3.5763 N   0  0  0  0  0  0  0  0  0  0  0  0
    5.1906    0.0289   -4.7115 C   0  0  0  0  0  0  0  0  0  0  0  0
    6.4195   -0.4927   -4.3116 C   0  0  0  0  0  0  0  0  0  0  0  0
    7.2960    0.2502   -3.5075 C   0  0  0  0  0  0  0  0  0  0  0  0
    6.9146    1.5434   -3.1175 C   0  0  0  0  0  0  0  0  0  0  0  0
    5.6900    2.0818   -3.5061 C   0  0  0  0  0  0  0  0  0  0  0  0
    4.8349    1.3134   -4.2980 C   0  0  0  0  0  0  0  0  0  0  0  0
    4.5193   -0.5392   -5.3469 H   0  0  0  0  0  0  0  0  0  0  0  0
    6.7060   -1.4898   -4.6349 H   0  0  0  0  0  0  0  0  0  0  0  0
    7.5897    2.1393   -2.5079 H   0  0  0  0  0  0  0  0  0  0  0  0
    5.4012    3.0867   -3.2190 H   0  0  0  0  0  0  0  0  0  0  0  0
    3.2655    1.9904   -4.8085 S   0  0  0  0  0  0  0  0  0  0  0  0
    2.3395    1.4390   -3.6033 O   0  0  0  0  0  0  0  0  0  0  0  0
    2.8481    1.3621   -6.0676 O   0  0  0  0  0  0  0  0  0  0  0  0
    3.3238    3.4583   -4.7379 O   0  0  0  0  0  0  0  0  0  0  0  0
    8.6146   -0.3319   -3.0565 C   0  0  0  0  0  0  0  0  0  0  0  0
    8.5365   -0.7365   -2.0396 H   0  0  0  0  0  0  0  0  0  0  0  0
    8.9373   -1.1479   -3.7096 H   0  0  0  0  0  0  0  0  0  0  0  0
    9.4032    0.4272   -3.0428 H   0  0  0  0  0  0  0  0  0  0  0  0
   -1.0189   -0.8350   -1.8213 O   0  0  0  0  0  0  0  0  0  0  0  0
   -1.7526   -1.0238   -0.6197 C   0  0  0  0  0  0  0  0  0  0  0  0
   -2.1247   -2.0489   -0.6588 H   0  0  0  0  0  0  0  0  0  0  0  0
   -2.6048   -0.3366   -0.5463 H   0  0  0  0  0  0  0  0  0  0  0  0
   -1.1193   -0.9114    0.2695 H   0  0  0  0  0  0  0  0  0  0  0  0
  1  6  2  0  0  0  0
  2  8  1  6  0  0  0
  2 24  1  0  0  0  0
  2  1  1  0  0  0  0
  2  3  1  0  0  0  0
  3 11  1  1  0  0  0
  3  4  1  0  0  0  0
  4  5  2  0  0  0  0
  4  9  1  0  0  0  0
  5 10  1  0  0  0  0
  6 31  1  0  0  0  0
  6  5  1  0  0  0  0
  7  1  1  0  0  0  0
 12 11  1  0  0  0  0
 13 14  2  0  0  0  0
 13 18  1  0  0  0  0
 14 15  1  0  0  0  0
 15 16  2  0  0  0  0
 15 27  1  0  0  0  0
 16 21  1  0  0  0  0
 17 22  1  0  0  0  0
 17 16  1  0  0  0  0
 18 17  2  0  0  0  0
 19 13  1  0  0  0  0
 20 14  1  0  0  0  0
 23 26  2  0  0  0  0
 23 18  1  0  0  0  0
 23 24  1  0  0  0  0
 25 23  2  0  0  0  0
 27 30  1  0  0  0  0
 27 28  1  0  0  0  0
 29 27  1  0  0  0  0
 31 32  1  0  0  0  0
 32 34  1  0  0  0  0
 32 35  1  0  0  0  0
 33 32  1  0  0  0  0
M  RAD  3   3   2  11   2  12   3
M  END
