Coordinates from ORCA-job p-CH3O-Ph-N2-OTs-B3LYP-6-31G_dp-scan-d09-49-n400
 OpenBabel02051708043D

 35 34  0  0  0  0  0  0  0  0999 V2000
   -0.6336   -0.1829   -2.8025 C   0  0  0  0  0  0  0  0  0  0  0  0
    0.4504    0.5851   -2.3726 C   0  0  0  0  0  0  0  0  0  0  0  0
    0.2305    1.5626   -1.6106 C   0  0  0  0  0  0  0  0  0  0  0  0
   -0.8740    2.1380   -1.0484 C   0  0  0  0  0  0  0  0  0  0  0  0
   -2.0023    1.3909   -1.4587 C   0  0  0  0  0  0  0  0  0  0  0  0
   -1.8878    0.2639   -2.3105 C   0  0  0  0  0  0  0  0  0  0  0  0
   -0.5872   -1.0463   -3.4577 H   0  0  0  0  0  0  0  0  0  0  0  0
    2.3659    0.4257   -2.9369 H   0  0  0  0  0  0  0  0  0  0  0  0
   -0.9289    3.0045   -0.4021 H   0  0  0  0  0  0  0  0  0  0  0  0
   -2.9750    1.7049   -1.0983 H   0  0  0  0  0  0  0  0  0  0  0  0
    2.3861    3.5845    0.1227 N   0  0  0  0  0  0  0  0  0  0  0  0
    3.4330    3.6546    0.4697 N   0  0  0  0  0  0  0  0  0  0  0  0
    6.4377    1.4861   -2.8922 C   0  0  0  0  0  0  0  0  0  0  0  0
    7.7787    1.1614   -3.0814 C   0  0  0  0  0  0  0  0  0  0  0  0
    8.2494    0.7167   -4.3268 C   0  0  0  0  0  0  0  0  0  0  0  0
    7.3400    0.6150   -5.3895 C   0  0  0  0  0  0  0  0  0  0  0  0
    5.9942    0.9358   -5.2201 C   0  0  0  0  0  0  0  0  0  0  0  0
    5.5552    1.3635   -3.9670 C   0  0  0  0  0  0  0  0  0  0  0  0
    6.0766    1.8455   -1.9347 H   0  0  0  0  0  0  0  0  0  0  0  0
    8.4734    1.2607   -2.2511 H   0  0  0  0  0  0  0  0  0  0  0  0
    7.6915    0.2857   -6.3638 H   0  0  0  0  0  0  0  0  0  0  0  0
    5.2926    0.8716   -6.0451 H   0  0  0  0  0  0  0  0  0  0  0  0
    3.8378    1.7853   -3.7414 S   0  0  0  0  0  0  0  0  0  0  0  0
    3.7068    2.7292   -2.6280 O   0  0  0  0  0  0  0  0  0  0  0  0
    3.3027    0.3261   -3.2477 O   0  0  0  0  0  0  0  0  0  0  0  0
    3.2432    2.1050   -5.0386 O   0  0  0  0  0  0  0  0  0  0  0  0
    9.7002    0.3405   -4.5113 C   0  0  0  0  0  0  0  0  0  0  0  0
   10.3590    0.9819   -3.9187 H   0  0  0  0  0  0  0  0  0  0  0  0
    9.8792   -0.6936   -4.1907 H   0  0  0  0  0  0  0  0  0  0  0  0
   10.0032    0.4148   -5.5597 H   0  0  0  0  0  0  0  0  0  0  0  0
   -2.9550   -0.4761   -2.7260 O   0  0  0  0  0  0  0  0  0  0  0  0
   -4.2597   -0.0899   -2.3206 C   0  0  0  0  0  0  0  0  0  0  0  0
   -4.9420   -0.8065   -2.7800 H   0  0  0  0  0  0  0  0  0  0  0  0
   -4.5084    0.9203   -2.6709 H   0  0  0  0  0  0  0  0  0  0  0  0
   -4.3729   -0.1328   -1.2291 H   0  0  0  0  0  0  0  0  0  0  0  0
  1  2  2  0  0  0  0
  1  6  1  0  0  0  0
  2  3  1  0  0  0  0
  3  4  2  0  0  0  0
  4  9  1  0  0  0  0
  5 10  1  0  0  0  0
  5  4  1  0  0  0  0
  6  5  2  0  0  0  0
  7  1  1  0  0  0  0
 11 12  3  0  0  0  0
 13 19  1  0  0  0  0
 14 13  1  0  0  0  0
 14 20  1  0  0  0  0
 15 14  2  0  0  0  0
 16 17  2  0  0  0  0
 16 15  1  0  0  0  0
 17 18  1  0  0  0  0
 18 23  1  0  0  0  0
 18 13  2  0  0  0  0
 21 16  1  0  0  0  0
 22 17  1  0  0  0  0
 23 25  1  0  0  0  0
 23 24  2  0  0  0  0
 25  8  1  0  0  0  0
 26 23  2  0  0  0  0
 27 15  1  0  0  0  0
 27 29  1  0  0  0  0
 27 28  1  0  0  0  0
 30 27  1  0  0  0  0
 31 32  1  0  0  0  0
 31  6  1  0  0  0  0
 32 35  1  0  0  0  0
 33 32  1  0  0  0  0
 34 32  1  0  0  0  0
M  RAD  2   2   2   3   2
M  END
