Coordinates from ORCA-job p-CH3O-Ph-N2-OTs-B3LYP-6-31G_dp-scan-d09-49-n400
 OpenBabel02051708043D

 35 35  0  0  0  0  0  0  0  0999 V2000
   -0.6163   -0.7062   -2.1969 C   0  0  0  0  0  0  0  0  0  0  0  0
    0.7374   -0.5967   -2.4868 C   0  0  0  0  0  0  0  0  0  0  0  0
    1.2889    0.6670   -2.7121 C   0  0  0  0  0  0  0  0  0  0  0  0
    0.5016    1.8115   -2.6588 C   0  0  0  0  0  0  0  0  0  0  0  0
   -0.8607    1.7036   -2.3670 C   0  0  0  0  0  0  0  0  0  0  0  0
   -1.4236    0.4417   -2.1350 C   0  0  0  0  0  0  0  0  0  0  0  0
   -1.0754   -1.6722   -2.0147 H   0  0  0  0  0  0  0  0  0  0  0  0
    1.3707   -1.4751   -2.5427 H   0  0  0  0  0  0  0  0  0  0  0  0
    0.9537    2.7794   -2.8449 H   0  0  0  0  0  0  0  0  0  0  0  0
   -1.4646    2.6026   -2.3275 H   0  0  0  0  0  0  0  0  0  0  0  0
    3.5267    1.9701   -0.0455 N   0  0  0  0  0  0  0  0  0  0  0  0
    4.2220    1.1117   -0.0052 N   0  0  0  0  0  0  0  0  0  0  0  0
    5.7176   -0.1738   -3.9241 C   0  0  0  0  0  0  0  0  0  0  0  0
    7.0747    0.0329   -3.6969 C   0  0  0  0  0  0  0  0  0  0  0  0
    7.6374    1.3177   -3.7748 C   0  0  0  0  0  0  0  0  0  0  0  0
    6.8022    2.3968   -4.0949 C   0  0  0  0  0  0  0  0  0  0  0  0
    5.4393    2.2114   -4.3247 C   0  0  0  0  0  0  0  0  0  0  0  0
    4.9109    0.9246   -4.2315 C   0  0  0  0  0  0  0  0  0  0  0  0
    5.2858   -1.1678   -3.8779 H   0  0  0  0  0  0  0  0  0  0  0  0
    7.7103   -0.8161   -3.4590 H   0  0  0  0  0  0  0  0  0  0  0  0
    7.2238    3.3955   -4.1708 H   0  0  0  0  0  0  0  0  0  0  0  0
    4.7946    3.0438   -4.5850 H   0  0  0  0  0  0  0  0  0  0  0  0
    3.1735    0.6742   -4.5296 S   0  0  0  0  0  0  0  0  0  0  0  0
    2.6722    0.7900   -2.9357 O   0  0  0  0  0  0  0  0  0  0  0  0
    2.9389   -0.6946   -4.9857 O   0  0  0  0  0  0  0  0  0  0  0  0
    2.6260    1.8098   -5.2690 O   0  0  0  0  0  0  0  0  0  0  0  0
    9.1103    1.5227   -3.5140 C   0  0  0  0  0  0  0  0  0  0  0  0
    9.7193    0.8431   -4.1193 H   0  0  0  0  0  0  0  0  0  0  0  0
    9.4197    2.5465   -3.7403 H   0  0  0  0  0  0  0  0  0  0  0  0
    9.3543    1.3242   -2.4634 H   0  0  0  0  0  0  0  0  0  0  0  0
   -2.7375    0.2216   -1.8412 O   0  0  0  0  0  0  0  0  0  0  0  0
   -3.6098    1.3390   -1.7815 C   0  0  0  0  0  0  0  0  0  0  0  0
   -4.5965    0.9387   -1.5427 H   0  0  0  0  0  0  0  0  0  0  0  0
   -3.6577    1.8671   -2.7430 H   0  0  0  0  0  0  0  0  0  0  0  0
   -3.3093    2.0472   -0.9979 H   0  0  0  0  0  0  0  0  0  0  0  0
  1  6  1  0  0  0  0
  1  7  1  0  0  0  0
  2  1  2  0  0  0  0
  3  4  2  0  0  0  0
  3  2  1  0  0  0  0
  4  5  1  0  0  0  0
  5 10  1  0  0  0  0
  5  6  2  0  0  0  0
  6 31  1  0  0  0  0
  8  2  1  0  0  0  0
  9  4  1  0  0  0  0
 11 12  3  0  0  0  0
 13 19  1  0  0  0  0
 13 14  2  0  0  0  0
 14 20  1  0  0  0  0
 15 14  1  0  0  0  0
 15 27  1  0  0  0  0
 16 15  2  0  0  0  0
 17 18  2  0  0  0  0
 17 16  1  0  0  0  0
 18 13  1  0  0  0  0
 21 16  1  0  0  0  0
 22 17  1  0  0  0  0
 23 18  1  0  0  0  0
 23 24  1  0  0  0  0
 24  3  1  0  0  0  0
 25 23  2  0  0  0  0
 26 23  2  0  0  0  0
 27 30  1  0  0  0  0
 28 27  1  0  0  0  0
 29 27  1  0  0  0  0
 31 32  1  0  0  0  0
 32 33  1  0  0  0  0
 32 35  1  0  0  0  0
 34 32  1  0  0  0  0
M  END
