Coordinates from ORCA-job p-CH3O-Ph-N2-OTs-B3LYP-6-31G_dp-scan-d09-49-n400
 OpenBabel02051708043D

 35 34  0  0  0  0  0  0  0  0999 V2000
   -0.2707    0.3681   -3.1028 C   0  0  0  0  0  0  0  0  0  0  0  0
    0.6502    1.4294   -3.0140 C   0  0  0  0  0  0  0  0  0  0  0  0
    0.2796    2.2484   -2.0287 C   0  0  0  0  0  0  0  0  0  0  0  0
   -0.7061    2.3327   -1.1020 C   0  0  0  0  0  0  0  0  0  0  0  0
   -1.5915    1.2437   -1.2332 C   0  0  0  0  0  0  0  0  0  0  0  0
   -1.3724    0.2703   -2.2275 C   0  0  0  0  0  0  0  0  0  0  0  0
   -0.1252   -0.3994   -3.8570 H   0  0  0  0  0  0  0  0  0  0  0  0
    1.5689    1.5355   -3.6865 H   0  0  0  0  0  0  0  0  0  0  0  0
   -0.8232    3.1090   -0.3580 H   0  0  0  0  0  0  0  0  0  0  0  0
   -2.4325    1.1863   -0.5532 H   0  0  0  0  0  0  0  0  0  0  0  0
    1.5073    3.9331   -1.8414 N   0  0  0  0  0  0  0  0  0  0  0  0
    1.8737    4.9694   -1.7276 N   0  0  0  0  0  0  0  0  0  0  0  0
    5.7155    0.4988   -3.0769 C   0  0  0  0  0  0  0  0  0  0  0  0
    6.9135   -0.1829   -3.2749 C   0  0  0  0  0  0  0  0  0  0  0  0
    7.8620    0.2717   -4.2052 C   0  0  0  0  0  0  0  0  0  0  0  0
    7.5766    1.4358   -4.9289 C   0  0  0  0  0  0  0  0  0  0  0  0
    6.3795    2.1293   -4.7403 C   0  0  0  0  0  0  0  0  0  0  0  0
    5.4510    1.6549   -3.8155 C   0  0  0  0  0  0  0  0  0  0  0  0
    4.9916    0.1563   -2.3446 H   0  0  0  0  0  0  0  0  0  0  0  0
    7.1192   -1.0812   -2.6965 H   0  0  0  0  0  0  0  0  0  0  0  0
    8.3028    1.8083   -5.6481 H   0  0  0  0  0  0  0  0  0  0  0  0
    6.1657    3.0395   -5.2904 H   0  0  0  0  0  0  0  0  0  0  0  0
    3.8863    2.5159   -3.6084 S   0  0  0  0  0  0  0  0  0  0  0  0
    3.4939    2.3284   -2.1779 O   0  0  0  0  0  0  0  0  0  0  0  0
    2.9160    1.7775   -4.5183 O   0  0  0  0  0  0  0  0  0  0  0  0
    4.1044    3.9172   -4.0188 O   0  0  0  0  0  0  0  0  0  0  0  0
    9.1608   -0.4748   -4.4045 C   0  0  0  0  0  0  0  0  0  0  0  0
    9.7688   -0.4686   -3.4911 H   0  0  0  0  0  0  0  0  0  0  0  0
    8.9825   -1.5251   -4.6632 H   0  0  0  0  0  0  0  0  0  0  0  0
    9.7584   -0.0292   -5.2051 H   0  0  0  0  0  0  0  0  0  0  0  0
   -2.1702   -0.8057   -2.4236 O   0  0  0  0  0  0  0  0  0  0  0  0
   -3.2977   -0.9902   -1.5743 C   0  0  0  0  0  0  0  0  0  0  0  0
   -3.7768   -1.9096   -1.9118 H   0  0  0  0  0  0  0  0  0  0  0  0
   -4.0069   -0.1575   -1.6641 H   0  0  0  0  0  0  0  0  0  0  0  0
   -2.9947   -1.1034   -0.5259 H   0  0  0  0  0  0  0  0  0  0  0  0
  1  2  2  0  0  0  0
  1  6  1  0  0  0  0
  2  3  1  0  0  0  0
  3  4  2  0  0  0  0
  4  9  1  0  0  0  0
  5  4  1  0  0  0  0
  5 10  1  0  0  0  0
  6  5  2  0  0  0  0
  7  1  1  0  0  0  0
  8  2  1  0  0  0  0
 11 12  3  0  0  0  0
 13 19  1  0  0  0  0
 14 13  1  0  0  0  0
 14 20  1  0  0  0  0
 15 14  2  0  0  0  0
 16 17  2  0  0  0  0
 16 15  1  0  0  0  0
 17 18  1  0  0  0  0
 18 23  1  0  0  0  0
 18 13  2  0  0  0  0
 21 16  1  0  0  0  0
 22 17  1  0  0  0  0
 23 24  1  0  0  0  0
 25 23  2  0  0  0  0
 26 23  2  0  0  0  0
 27 15  1  0  0  0  0
 27 28  1  0  0  0  0
 29 27  1  0  0  0  0
 30 27  1  0  0  0  0
 31  6  1  0  0  0  0
 31 32  1  0  0  0  0
 32 35  1  0  0  0  0
 33 32  1  0  0  0  0
 34 32  1  0  0  0  0
M  RAD  2   3   2  24   2
M  END
