Coordinates from ORCA-job p-CH3O-Ph-N2-OTs-B3LYP-6-31G_dp-scan-d09-49-n400
 OpenBabel02051708043D

 35 34  0  0  0  0  0  0  0  0999 V2000
   -0.6243   -0.1676   -2.7986 C   0  0  0  0  0  0  0  0  0  0  0  0
    0.4575    0.6002   -2.3622 C   0  0  0  0  0  0  0  0  0  0  0  0
    0.2321    1.5715   -1.5936 C   0  0  0  0  0  0  0  0  0  0  0  0
   -0.8745    2.1402   -1.0294 C   0  0  0  0  0  0  0  0  0  0  0  0
   -2.0000    1.3927   -1.4466 C   0  0  0  0  0  0  0  0  0  0  0  0
   -1.8807    0.2719   -2.3059 C   0  0  0  0  0  0  0  0  0  0  0  0
   -0.5742   -1.0262   -3.4599 H   0  0  0  0  0  0  0  0  0  0  0  0
    2.3654    0.4400   -2.9360 H   0  0  0  0  0  0  0  0  0  0  0  0
   -0.9324    3.0021   -0.3772 H   0  0  0  0  0  0  0  0  0  0  0  0
   -2.9742    1.7013   -1.0854 H   0  0  0  0  0  0  0  0  0  0  0  0
    2.3438    3.5317    0.1078 N   0  0  0  0  0  0  0  0  0  0  0  0
    3.3907    3.6107    0.4529 N   0  0  0  0  0  0  0  0  0  0  0  0
    6.4366    1.4969   -2.8999 C   0  0  0  0  0  0  0  0  0  0  0  0
    7.7778    1.1700   -3.0847 C   0  0  0  0  0  0  0  0  0  0  0  0
    8.2498    0.7148   -4.3258 C   0  0  0  0  0  0  0  0  0  0  0  0
    7.3417    0.6048   -5.3887 C   0  0  0  0  0  0  0  0  0  0  0  0
    5.9959    0.9276   -5.2238 C   0  0  0  0  0  0  0  0  0  0  0  0
    5.5555    1.3659   -3.9749 C   0  0  0  0  0  0  0  0  0  0  0  0
    6.0744    1.8643   -1.9459 H   0  0  0  0  0  0  0  0  0  0  0  0
    8.4714    1.2759   -2.2543 H   0  0  0  0  0  0  0  0  0  0  0  0
    7.6943    0.2673   -6.3599 H   0  0  0  0  0  0  0  0  0  0  0  0
    5.2954    0.8571   -6.0491 H   0  0  0  0  0  0  0  0  0  0  0  0
    3.8380    1.7909   -3.7550 S   0  0  0  0  0  0  0  0  0  0  0  0
    3.7060    2.7433   -2.6490 O   0  0  0  0  0  0  0  0  0  0  0  0
    3.3006    0.3362   -3.2511 O   0  0  0  0  0  0  0  0  0  0  0  0
    3.2461    2.1014   -5.0557 O   0  0  0  0  0  0  0  0  0  0  0  0
    9.7007    0.3364   -4.5054 C   0  0  0  0  0  0  0  0  0  0  0  0
   10.3589    0.9804   -3.9148 H   0  0  0  0  0  0  0  0  0  0  0  0
    9.8782   -0.6962   -4.1791 H   0  0  0  0  0  0  0  0  0  0  0  0
   10.0058    0.4050   -5.5536 H   0  0  0  0  0  0  0  0  0  0  0  0
   -2.9449   -0.4685   -2.7281 O   0  0  0  0  0  0  0  0  0  0  0  0
   -4.2514   -0.0890   -2.3223 C   0  0  0  0  0  0  0  0  0  0  0  0
   -4.9308   -0.8047   -2.7874 H   0  0  0  0  0  0  0  0  0  0  0  0
   -4.5027    0.9227   -2.6663 H   0  0  0  0  0  0  0  0  0  0  0  0
   -4.3662   -0.1395   -1.2313 H   0  0  0  0  0  0  0  0  0  0  0  0
  1  2  2  0  0  0  0
  1  6  1  0  0  0  0
  2  3  1  0  0  0  0
  3  4  2  0  0  0  0
  4  9  1  0  0  0  0
  5 10  1  0  0  0  0
  5  4  1  0  0  0  0
  6  5  2  0  0  0  0
  7  1  1  0  0  0  0
 11 12  3  0  0  0  0
 13 19  1  0  0  0  0
 14 13  1  0  0  0  0
 14 20  1  0  0  0  0
 15 14  2  0  0  0  0
 16 17  2  0  0  0  0
 16 15  1  0  0  0  0
 17 18  1  0  0  0  0
 18 23  1  0  0  0  0
 18 13  2  0  0  0  0
 21 16  1  0  0  0  0
 22 17  1  0  0  0  0
 23 25  1  0  0  0  0
 23 24  2  0  0  0  0
 25  8  1  0  0  0  0
 26 23  2  0  0  0  0
 27 15  1  0  0  0  0
 27 29  1  0  0  0  0
 27 28  1  0  0  0  0
 30 27  1  0  0  0  0
 31 32  1  0  0  0  0
 31  6  1  0  0  0  0
 32 35  1  0  0  0  0
 33 32  1  0  0  0  0
 34 32  1  0  0  0  0
M  RAD  2   2   2   3   2
M  END
