Coordinates from ORCA-job p-CH3O-Ph-N2-OTs-B3LYP-6-31G_dp-scan-d09-49-n400
 OpenBabel02051708043D

 35 35  0  0  0  0  0  0  0  0999 V2000
   -0.6545   -0.7312   -2.2090 C   0  0  0  0  0  0  0  0  0  0  0  0
    0.7004   -0.5969   -2.4814 C   0  0  0  0  0  0  0  0  0  0  0  0
    1.2305    0.6762   -2.7047 C   0  0  0  0  0  0  0  0  0  0  0  0
    0.4208    1.8057   -2.6677 C   0  0  0  0  0  0  0  0  0  0  0  0
   -0.9432    1.6725   -2.3942 C   0  0  0  0  0  0  0  0  0  0  0  0
   -1.4846    0.4009   -2.1634 C   0  0  0  0  0  0  0  0  0  0  0  0
   -1.0974   -1.7052   -2.0285 H   0  0  0  0  0  0  0  0  0  0  0  0
    1.3511   -1.4632   -2.5248 H   0  0  0  0  0  0  0  0  0  0  0  0
    0.8563    2.7812   -2.8532 H   0  0  0  0  0  0  0  0  0  0  0  0
   -1.5649    2.5597   -2.3677 H   0  0  0  0  0  0  0  0  0  0  0  0
    4.4702    2.3196   -0.1018 N   0  0  0  0  0  0  0  0  0  0  0  0
    4.9568    1.3517   -0.3213 N   0  0  0  0  0  0  0  0  0  0  0  0
    5.6488   -0.1616   -3.8866 C   0  0  0  0  0  0  0  0  0  0  0  0
    7.0094    0.0111   -3.6534 C   0  0  0  0  0  0  0  0  0  0  0  0
    7.6027    1.2828   -3.7201 C   0  0  0  0  0  0  0  0  0  0  0  0
    6.7938    2.3842   -4.0306 C   0  0  0  0  0  0  0  0  0  0  0  0
    5.4273    2.2331   -4.2653 C   0  0  0  0  0  0  0  0  0  0  0  0
    4.8689    0.9583   -4.1867 C   0  0  0  0  0  0  0  0  0  0  0  0
    5.1938   -1.1455   -3.8494 H   0  0  0  0  0  0  0  0  0  0  0  0
    7.6238   -0.8545   -3.4193 H   0  0  0  0  0  0  0  0  0  0  0  0
    7.2389    3.3735   -4.0948 H   0  0  0  0  0  0  0  0  0  0  0  0
    4.8025    3.0830   -4.5174 H   0  0  0  0  0  0  0  0  0  0  0  0
    3.1289    0.7488   -4.5015 S   0  0  0  0  0  0  0  0  0  0  0  0
    2.6147    0.8232   -2.9095 O   0  0  0  0  0  0  0  0  0  0  0  0
    2.8732   -0.6004   -5.0024 O   0  0  0  0  0  0  0  0  0  0  0  0
    2.6084    1.9168   -5.2096 O   0  0  0  0  0  0  0  0  0  0  0  0
    9.0824    1.4475   -3.4691 C   0  0  0  0  0  0  0  0  0  0  0  0
    9.6721    0.8811   -4.1989 H   0  0  0  0  0  0  0  0  0  0  0  0
    9.3866    2.4954   -3.5325 H   0  0  0  0  0  0  0  0  0  0  0  0
    9.3580    1.0752   -2.4758 H   0  0  0  0  0  0  0  0  0  0  0  0
   -2.7978    0.1567   -1.8859 O   0  0  0  0  0  0  0  0  0  0  0  0
   -3.6918    1.2575   -1.8407 C   0  0  0  0  0  0  0  0  0  0  0  0
   -4.6736    0.8394   -1.6122 H   0  0  0  0  0  0  0  0  0  0  0  0
   -3.7383    1.7813   -2.8046 H   0  0  0  0  0  0  0  0  0  0  0  0
   -3.4139    1.9738   -1.0562 H   0  0  0  0  0  0  0  0  0  0  0  0
  1  6  1  0  0  0  0
  1  7  1  0  0  0  0
  2  1  2  0  0  0  0
  3  4  2  0  0  0  0
  3  2  1  0  0  0  0
  4  5  1  0  0  0  0
  5 10  1  0  0  0  0
  5  6  2  0  0  0  0
  6 31  1  0  0  0  0
  8  2  1  0  0  0  0
  9  4  1  0  0  0  0
 12 11  3  0  0  0  0
 13 19  1  0  0  0  0
 13 14  2  0  0  0  0
 14 20  1  0  0  0  0
 15 14  1  0  0  0  0
 15 27  1  0  0  0  0
 16 15  2  0  0  0  0
 17 18  2  0  0  0  0
 17 16  1  0  0  0  0
 18 13  1  0  0  0  0
 21 16  1  0  0  0  0
 22 17  1  0  0  0  0
 23 18  1  0  0  0  0
 23 24  1  0  0  0  0
 24  3  1  0  0  0  0
 25 23  2  0  0  0  0
 26 23  2  0  0  0  0
 27 30  1  0  0  0  0
 28 27  1  0  0  0  0
 29 27  1  0  0  0  0
 31 32  1  0  0  0  0
 32 33  1  0  0  0  0
 32 35  1  0  0  0  0
 34 32  1  0  0  0  0
M  END
