Coordinates from ORCA-job p-CH3O-Ph-N2-OTs-B3LYP-6-31G_dp-scan-d09-49-n400
 OpenBabel02051708043D

 35 35  0  0  0  0  0  0  0  0999 V2000
   -0.4493    0.0030   -2.5668 C   0  0  0  0  0  0  0  0  0  0  0  0
    0.4152    0.9413   -3.1148 C   0  0  0  0  0  0  0  0  0  0  0  0
    0.1161    2.2539   -2.7839 C   0  0  0  0  0  0  0  0  0  0  0  0
   -0.9157    2.7172   -1.9905 C   0  0  0  0  0  0  0  0  0  0  0  0
   -1.7557    1.7458   -1.4484 C   0  0  0  0  0  0  0  0  0  0  0  0
   -1.5228    0.3871   -1.7365 C   0  0  0  0  0  0  0  0  0  0  0  0
   -0.3005   -1.0530   -2.7645 H   0  0  0  0  0  0  0  0  0  0  0  0
    1.2668    0.6709   -3.7443 H   0  0  0  0  0  0  0  0  0  0  0  0
   -1.0629    3.7721   -1.7935 H   0  0  0  0  0  0  0  0  0  0  0  0
   -2.5766    2.0552   -0.8143 H   0  0  0  0  0  0  0  0  0  0  0  0
    1.0585    3.4266   -3.4161 N   0  0  0  0  0  0  0  0  0  0  0  0
    1.7870    4.0963   -3.9348 N   0  0  0  0  0  0  0  0  0  0  0  0
    5.9818    0.4998   -5.1043 C   0  0  0  0  0  0  0  0  0  0  0  0
    7.3350    0.1654   -5.1163 C   0  0  0  0  0  0  0  0  0  0  0  0
    8.1782    0.5152   -4.0514 C   0  0  0  0  0  0  0  0  0  0  0  0
    7.6267    1.2138   -2.9679 C   0  0  0  0  0  0  0  0  0  0  0  0
    6.2751    1.5558   -2.9435 C   0  0  0  0  0  0  0  0  0  0  0  0
    5.4563    1.1968   -4.0149 C   0  0  0  0  0  0  0  0  0  0  0  0
    5.3279    0.2162   -5.9223 H   0  0  0  0  0  0  0  0  0  0  0  0
    7.7443   -0.3780   -5.9654 H   0  0  0  0  0  0  0  0  0  0  0  0
    8.2644    1.4923   -2.1317 H   0  0  0  0  0  0  0  0  0  0  0  0
    5.8444    2.0847   -2.0995 H   0  0  0  0  0  0  0  0  0  0  0  0
    3.7280    1.6817   -4.0113 S   0  0  0  0  0  0  0  0  0  0  0  0
    3.3094    1.7957   -2.5857 O   0  0  0  0  0  0  0  0  0  0  0  0
    2.9957    0.6167   -4.7595 O   0  0  0  0  0  0  0  0  0  0  0  0
    3.6757    3.0181   -4.7119 O   0  0  0  0  0  0  0  0  0  0  0  0
    9.6368    0.1197   -4.0568 C   0  0  0  0  0  0  0  0  0  0  0  0
    9.7798   -0.8735   -3.6112 H   0  0  0  0  0  0  0  0  0  0  0  0
   10.0373    0.0777   -5.0746 H   0  0  0  0  0  0  0  0  0  0  0  0
   10.2456    0.8236   -3.4809 H   0  0  0  0  0  0  0  0  0  0  0  0
   -2.2770   -0.6269   -1.2640 O   0  0  0  0  0  0  0  0  0  0  0  0
   -3.3771   -0.3339   -0.4054 C   0  0  0  0  0  0  0  0  0  0  0  0
   -3.8191   -1.2975   -0.1525 H   0  0  0  0  0  0  0  0  0  0  0  0
   -4.1249    0.2873   -0.9133 H   0  0  0  0  0  0  0  0  0  0  0  0
   -3.0441    0.1649    0.5125 H   0  0  0  0  0  0  0  0  0  0  0  0
  1  6  2  0  0  0  0
  2  3  2  0  0  0  0
  2  1  1  0  0  0  0
  3  4  1  0  0  0  0
  4  9  1  0  0  0  0
  4  5  2  0  0  0  0
  5 10  1  0  0  0  0
  6  5  1  0  0  0  0
  6 31  1  0  0  0  0
  7  1  1  0  0  0  0
  8  2  1  0  0  0  0
 11  3  1  0  0  0  0
 12 11  1  0  0  0  0
 13 18  1  0  0  0  0
 14 13  2  0  0  0  0
 14 15  1  0  0  0  0
 15 16  2  0  0  0  0
 16 17  1  0  0  0  0
 16 21  1  0  0  0  0
 17 22  1  0  0  0  0
 18 23  1  0  0  0  0
 18 17  2  0  0  0  0
 19 13  1  0  0  0  0
 20 14  1  0  0  0  0
 23 24  1  0  0  0  0
 25 23  2  0  0  0  0
 26 23  2  0  0  0  0
 27 15  1  0  0  0  0
 27 28  1  0  0  0  0
 27 30  1  0  0  0  0
 29 27  1  0  0  0  0
 31 32  1  0  0  0  0
 32 33  1  0  0  0  0
 32 35  1  0  0  0  0
 34 32  1  0  0  0  0
M  RAD  3  11   2  12   3  24   2
M  END
