Coordinates from ORCA-job p-CH3O-Ph-N2-OTs-B3LYP-6-31G_dp-scan-d09-49-n400
 OpenBabel02051708043D

 35 34  0  0  0  0  0  0  0  0999 V2000
   -0.5505   -0.0297   -2.7932 C   0  0  0  0  0  0  0  0  0  0  0  0
    0.4968    0.7456   -2.2870 C   0  0  0  0  0  0  0  0  0  0  0  0
    0.2108    1.6520   -1.4595 C   0  0  0  0  0  0  0  0  0  0  0  0
   -0.9255    2.1378   -0.8794 C   0  0  0  0  0  0  0  0  0  0  0  0
   -2.0130    1.3769   -1.3674 C   0  0  0  0  0  0  0  0  0  0  0  0
   -1.8324    0.3233   -2.2979 C   0  0  0  0  0  0  0  0  0  0  0  0
   -0.4537   -0.8380   -3.5106 H   0  0  0  0  0  0  0  0  0  0  0  0
    2.3632    0.5767   -2.8798 H   0  0  0  0  0  0  0  0  0  0  0  0
   -1.0276    2.9504   -0.1718 H   0  0  0  0  0  0  0  0  0  0  0  0
   -3.0049    1.6221   -1.0060 H   0  0  0  0  0  0  0  0  0  0  0  0
    2.1671    3.3749    0.0156 N   0  0  0  0  0  0  0  0  0  0  0  0
    3.2190    3.4594    0.3434 N   0  0  0  0  0  0  0  0  0  0  0  0
    6.4489    1.5676   -2.9392 C   0  0  0  0  0  0  0  0  0  0  0  0
    7.7839    1.2104   -3.1138 C   0  0  0  0  0  0  0  0  0  0  0  0
    8.2402    0.6787   -4.3298 C   0  0  0  0  0  0  0  0  0  0  0  0
    7.3227    0.5225   -5.3791 C   0  0  0  0  0  0  0  0  0  0  0  0
    5.9833    0.8751   -5.2243 C   0  0  0  0  0  0  0  0  0  0  0  0
    5.5583    1.3900   -3.9993 C   0  0  0  0  0  0  0  0  0  0  0  0
    6.0989    1.9934   -2.0052 H   0  0  0  0  0  0  0  0  0  0  0  0
    8.4851    1.3531   -2.2953 H   0  0  0  0  0  0  0  0  0  0  0  0
    7.6632    0.1258   -6.3320 H   0  0  0  0  0  0  0  0  0  0  0  0
    5.2763    0.7694   -6.0403 H   0  0  0  0  0  0  0  0  0  0  0  0
    3.8492    1.8550   -3.7929 S   0  0  0  0  0  0  0  0  0  0  0  0
    3.7395    2.8611   -2.7326 O   0  0  0  0  0  0  0  0  0  0  0  0
    3.2876    0.4369   -3.2187 O   0  0  0  0  0  0  0  0  0  0  0  0
    3.2580    2.1143   -5.1050 O   0  0  0  0  0  0  0  0  0  0  0  0
    9.6837    0.2680   -4.4979 C   0  0  0  0  0  0  0  0  0  0  0  0
   10.3533    0.9099   -3.9179 H   0  0  0  0  0  0  0  0  0  0  0  0
    9.8397   -0.7617   -4.1521 H   0  0  0  0  0  0  0  0  0  0  0  0
    9.9925    0.3100   -5.5464 H   0  0  0  0  0  0  0  0  0  0  0  0
   -2.8572   -0.4287   -2.7906 O   0  0  0  0  0  0  0  0  0  0  0  0
   -4.1842   -0.1371   -2.3792 C   0  0  0  0  0  0  0  0  0  0  0  0
   -4.8248   -0.8481   -2.9027 H   0  0  0  0  0  0  0  0  0  0  0  0
   -4.4774    0.8839   -2.6562 H   0  0  0  0  0  0  0  0  0  0  0  0
   -4.3097   -0.2690   -1.2961 H   0  0  0  0  0  0  0  0  0  0  0  0
  1  6  2  0  0  0  0
  1  2  1  0  0  0  0
  2  3  2  0  0  0  0
  3  4  1  0  0  0  0
  4  9  1  0  0  0  0
  5 10  1  0  0  0  0
  5  4  2  0  0  0  0
  6  5  1  0  0  0  0
  7  1  1  0  0  0  0
 11 12  3  0  0  0  0
 13 19  1  0  0  0  0
 14 13  1  0  0  0  0
 14 20  1  0  0  0  0
 15 14  2  0  0  0  0
 16 17  2  0  0  0  0
 16 15  1  0  0  0  0
 17 18  1  0  0  0  0
 18 23  1  0  0  0  0
 18 13  2  0  0  0  0
 21 16  1  0  0  0  0
 22 17  1  0  0  0  0
 23 25  1  0  0  0  0
 23 24  2  0  0  0  0
 25  8  1  0  0  0  0
 26 23  2  0  0  0  0
 27 15  1  0  0  0  0
 27 29  1  0  0  0  0
 27 28  1  0  0  0  0
 30 27  1  0  0  0  0
 31 32  1  0  0  0  0
 31  6  1  0  0  0  0
 32 35  1  0  0  0  0
 33 32  1  0  0  0  0
 34 32  1  0  0  0  0
M  RAD  2   2   2   3   2
M  END
