Coordinates from ORCA-job p-CH3O-Ph-N2-OTs-B3LYP-6-31G_dp-scan-d09-49-n400
 OpenBabel02051708043D

 35 35  0  0  0  0  0  0  0  0999 V2000
   -0.6423   -0.7262   -2.2031 C   0  0  0  0  0  0  0  0  0  0  0  0
    0.7123   -0.5966   -2.4798 C   0  0  0  0  0  0  0  0  0  0  0  0
    1.2464    0.6747   -2.7033 C   0  0  0  0  0  0  0  0  0  0  0  0
    0.4410    1.8072   -2.6622 C   0  0  0  0  0  0  0  0  0  0  0  0
   -0.9225    1.6788   -2.3843 C   0  0  0  0  0  0  0  0  0  0  0  0
   -1.4679    0.4090   -2.1534 C   0  0  0  0  0  0  0  0  0  0  0  0
   -1.0882   -1.6988   -2.0222 H   0  0  0  0  0  0  0  0  0  0  0  0
    1.3595   -1.4653   -2.5264 H   0  0  0  0  0  0  0  0  0  0  0  0
    0.8796    2.7814   -2.8477 H   0  0  0  0  0  0  0  0  0  0  0  0
   -1.5407    2.5683   -2.3546 H   0  0  0  0  0  0  0  0  0  0  0  0
    4.2146    2.2565   -0.1243 N   0  0  0  0  0  0  0  0  0  0  0  0
    4.7543    1.3108   -0.3149 N   0  0  0  0  0  0  0  0  0  0  0  0
    5.6658   -0.1652   -3.8984 C   0  0  0  0  0  0  0  0  0  0  0  0
    7.0258    0.0133   -3.6660 C   0  0  0  0  0  0  0  0  0  0  0  0
    7.6130    1.2880   -3.7299 C   0  0  0  0  0  0  0  0  0  0  0  0
    6.7990    2.3861   -4.0385 C   0  0  0  0  0  0  0  0  0  0  0  0
    5.4331    2.2292   -4.2728 C   0  0  0  0  0  0  0  0  0  0  0  0
    4.8805    0.9517   -4.1955 C   0  0  0  0  0  0  0  0  0  0  0  0
    5.2152   -1.1512   -3.8628 H   0  0  0  0  0  0  0  0  0  0  0  0
    7.6444   -0.8499   -3.4345 H   0  0  0  0  0  0  0  0  0  0  0  0
    7.2394    3.3776   -4.1011 H   0  0  0  0  0  0  0  0  0  0  0  0
    4.8044    3.0766   -4.5232 H   0  0  0  0  0  0  0  0  0  0  0  0
    3.1406    0.7356   -4.5061 S   0  0  0  0  0  0  0  0  0  0  0  0
    2.6303    0.8171   -2.9129 O   0  0  0  0  0  0  0  0  0  0  0  0
    2.8876   -0.6169   -4.9993 O   0  0  0  0  0  0  0  0  0  0  0  0
    2.6150    1.8985   -5.2188 O   0  0  0  0  0  0  0  0  0  0  0  0
    9.0912    1.4597   -3.4747 C   0  0  0  0  0  0  0  0  0  0  0  0
    9.6856    0.8672   -4.1790 H   0  0  0  0  0  0  0  0  0  0  0  0
    9.3971    2.5045   -3.5721 H   0  0  0  0  0  0  0  0  0  0  0  0
    9.3586    1.1228   -2.4664 H   0  0  0  0  0  0  0  0  0  0  0  0
   -2.7811    0.1694   -1.8718 O   0  0  0  0  0  0  0  0  0  0  0  0
   -3.6710    1.2734   -1.8230 C   0  0  0  0  0  0  0  0  0  0  0  0
   -4.6536    0.8586   -1.5921 H   0  0  0  0  0  0  0  0  0  0  0  0
   -3.7183    1.7982   -2.7864 H   0  0  0  0  0  0  0  0  0  0  0  0
   -3.3882    1.9880   -1.0388 H   0  0  0  0  0  0  0  0  0  0  0  0
  1  6  1  0  0  0  0
  1  7  1  0  0  0  0
  2  1  2  0  0  0  0
  3  4  2  0  0  0  0
  3  2  1  0  0  0  0
  4  5  1  0  0  0  0
  5 10  1  0  0  0  0
  5  6  2  0  0  0  0
  6 31  1  0  0  0  0
  8  2  1  0  0  0  0
  9  4  1  0  0  0  0
 12 11  3  0  0  0  0
 13 19  1  0  0  0  0
 13 14  2  0  0  0  0
 14 20  1  0  0  0  0
 15 14  1  0  0  0  0
 15 27  1  0  0  0  0
 16 15  2  0  0  0  0
 17 18  2  0  0  0  0
 17 16  1  0  0  0  0
 18 13  1  0  0  0  0
 21 16  1  0  0  0  0
 22 17  1  0  0  0  0
 23 18  1  0  0  0  0
 23 24  1  0  0  0  0
 24  3  1  0  0  0  0
 25 23  2  0  0  0  0
 26 23  2  0  0  0  0
 27 30  1  0  0  0  0
 28 27  1  0  0  0  0
 29 27  1  0  0  0  0
 31 32  1  0  0  0  0
 32 33  1  0  0  0  0
 32 35  1  0  0  0  0
 34 32  1  0  0  0  0
M  END
