Coordinates from ORCA-job p-CH3O-Ph-N2-OTs-B3LYP-6-31G_dp-scan-d09-49-n400
 OpenBabel02051708043D

 35 34  0  0  0  0  0  0  0  0999 V2000
   -0.1514    0.4365   -3.1267 C   0  0  0  0  0  0  0  0  0  0  0  0
    0.7007    1.5547   -3.0035 C   0  0  0  0  0  0  0  0  0  0  0  0
    0.2678    2.3084   -2.0055 C   0  0  0  0  0  0  0  0  0  0  0  0
   -0.7206    2.3256   -1.0806 C   0  0  0  0  0  0  0  0  0  0  0  0
   -1.5353    1.1854   -1.2458 C   0  0  0  0  0  0  0  0  0  0  0  0
   -1.2503    0.2511   -2.2620 C   0  0  0  0  0  0  0  0  0  0  0  0
    0.0476   -0.3026   -3.8970 H   0  0  0  0  0  0  0  0  0  0  0  0
    1.6425    1.7283   -3.6792 H   0  0  0  0  0  0  0  0  0  0  0  0
   -0.8879    3.0765   -0.3205 H   0  0  0  0  0  0  0  0  0  0  0  0
   -2.3752    1.0598   -0.5737 H   0  0  0  0  0  0  0  0  0  0  0  0
    1.3994    4.1365   -1.7671 N   0  0  0  0  0  0  0  0  0  0  0  0
    1.7886    5.1663   -1.6807 N   0  0  0  0  0  0  0  0  0  0  0  0
    5.6697    0.6203   -2.9788 C   0  0  0  0  0  0  0  0  0  0  0  0
    6.8215   -0.1364   -3.1807 C   0  0  0  0  0  0  0  0  0  0  0  0
    7.7398    0.1952   -4.1897 C   0  0  0  0  0  0  0  0  0  0  0  0
    7.4745    1.3159   -4.9870 C   0  0  0  0  0  0  0  0  0  0  0  0
    6.3246    2.0838   -4.7950 C   0  0  0  0  0  0  0  0  0  0  0  0
    5.4234    1.7291   -3.7921 C   0  0  0  0  0  0  0  0  0  0  0  0
    4.9697    0.3758   -2.1866 H   0  0  0  0  0  0  0  0  0  0  0  0
    7.0153   -0.9962   -2.5428 H   0  0  0  0  0  0  0  0  0  0  0  0
    8.1801    1.5946   -5.7666 H   0  0  0  0  0  0  0  0  0  0  0  0
    6.1293    2.9617   -5.4017 H   0  0  0  0  0  0  0  0  0  0  0  0
    3.9186    2.6867   -3.5721 S   0  0  0  0  0  0  0  0  0  0  0  0
    3.5290    2.5441   -2.1417 O   0  0  0  0  0  0  0  0  0  0  0  0
    2.8923    1.9816   -4.4655 O   0  0  0  0  0  0  0  0  0  0  0  0
    4.2066    4.0575   -4.0309 O   0  0  0  0  0  0  0  0  0  0  0  0
    8.9819   -0.6394   -4.4012 C   0  0  0  0  0  0  0  0  0  0  0  0
    9.5763   -0.7115   -3.4826 H   0  0  0  0  0  0  0  0  0  0  0  0
    8.7274   -1.6639   -4.6990 H   0  0  0  0  0  0  0  0  0  0  0  0
    9.6206   -0.2155   -5.1815 H   0  0  0  0  0  0  0  0  0  0  0  0
   -1.9804   -0.8673   -2.4890 O   0  0  0  0  0  0  0  0  0  0  0  0
   -3.1019   -1.1365   -1.6554 C   0  0  0  0  0  0  0  0  0  0  0  0
   -3.5239   -2.0742   -2.0177 H   0  0  0  0  0  0  0  0  0  0  0  0
   -3.8579   -0.3446   -1.7335 H   0  0  0  0  0  0  0  0  0  0  0  0
   -2.8020   -1.2557   -0.6068 H   0  0  0  0  0  0  0  0  0  0  0  0
  1  2  2  0  0  0  0
  1  6  1  0  0  0  0
  2  3  1  0  0  0  0
  3  4  2  0  0  0  0
  4  9  1  0  0  0  0
  5  4  1  0  0  0  0
  5 10  1  0  0  0  0
  6  5  2  0  0  0  0
  7  1  1  0  0  0  0
  8  2  1  0  0  0  0
 11 12  3  0  0  0  0
 13 19  1  0  0  0  0
 14 13  1  0  0  0  0
 14 20  1  0  0  0  0
 15 14  2  0  0  0  0
 16 17  2  0  0  0  0
 16 15  1  0  0  0  0
 17 18  1  0  0  0  0
 18 23  1  0  0  0  0
 18 13  2  0  0  0  0
 21 16  1  0  0  0  0
 22 17  1  0  0  0  0
 23 24  1  0  0  0  0
 25 23  2  0  0  0  0
 26 23  2  0  0  0  0
 27 15  1  0  0  0  0
 27 28  1  0  0  0  0
 29 27  1  0  0  0  0
 30 27  1  0  0  0  0
 31  6  1  0  0  0  0
 31 32  1  0  0  0  0
 32 35  1  0  0  0  0
 33 32  1  0  0  0  0
 34 32  1  0  0  0  0
M  RAD  2   3   2  24   2
M  END
