Coordinates from ORCA-job p-CH3O-Ph-N2-OTs-B3LYP-6-31G_dp-scan-d09-49-n400
 OpenBabel02051708043D

 35 35  0  0  0  0  0  0  0  0999 V2000
   -0.5330    0.0429   -2.7978 C   0  0  0  0  0  0  0  0  0  0  0  0
    0.5605    0.9082   -2.8785 C   0  0  0  0  0  0  0  0  0  0  0  0
    0.4132    2.0134   -2.0912 C   0  0  0  0  0  0  0  0  0  0  0  0
   -0.5956    2.4056   -1.2541 C   0  0  0  0  0  0  0  0  0  0  0  0
   -1.6681    1.5034   -1.1971 C   0  0  0  0  0  0  0  0  0  0  0  0
   -1.6349    0.3259   -1.9662 C   0  0  0  0  0  0  0  0  0  0  0  0
   -0.5432   -0.8700   -3.3837 H   0  0  0  0  0  0  0  0  0  0  0  0
    1.4258    0.7232   -3.5248 H   0  0  0  0  0  0  0  0  0  0  0  0
   -0.5818    3.3250   -0.6833 H   0  0  0  0  0  0  0  0  0  0  0  0
   -2.5084    1.7389   -0.5556 H   0  0  0  0  0  0  0  0  0  0  0  0
    1.7886    3.2527   -2.1506 N   0  0  0  0  0  0  0  0  0  0  0  0
    2.0598    4.3192   -1.9773 N   0  0  0  0  0  0  0  0  0  0  0  0
    5.7820   -0.0097   -4.2231 C   0  0  0  0  0  0  0  0  0  0  0  0
    7.1217   -0.3975   -4.2459 C   0  0  0  0  0  0  0  0  0  0  0  0
    8.1523    0.5501   -4.1791 C   0  0  0  0  0  0  0  0  0  0  0  0
    7.8051    1.9075   -4.1000 C   0  0  0  0  0  0  0  0  0  0  0  0
    6.4713    2.3101   -4.0773 C   0  0  0  0  0  0  0  0  0  0  0  0
    5.4634    1.3456   -4.1359 C   0  0  0  0  0  0  0  0  0  0  0  0
    4.9845   -0.7413   -4.2949 H   0  0  0  0  0  0  0  0  0  0  0  0
    7.3712   -1.4534   -4.3256 H   0  0  0  0  0  0  0  0  0  0  0  0
    8.5906    2.6590   -4.0641 H   0  0  0  0  0  0  0  0  0  0  0  0
    6.2036    3.3611   -4.0379 H   0  0  0  0  0  0  0  0  0  0  0  0
    3.7437    1.8619   -4.0776 S   0  0  0  0  0  0  0  0  0  0  0  0
    3.4246    1.8668   -2.5794 O   0  0  0  0  0  0  0  0  0  0  0  0
    2.9601    0.7981   -4.7669 O   0  0  0  0  0  0  0  0  0  0  0  0
    3.6595    3.2151   -4.6610 O   0  0  0  0  0  0  0  0  0  0  0  0
    9.6016    0.1230   -4.1759 C   0  0  0  0  0  0  0  0  0  0  0  0
   10.0000    0.0816   -3.1540 H   0  0  0  0  0  0  0  0  0  0  0  0
    9.7271   -0.8714   -4.6151 H   0  0  0  0  0  0  0  0  0  0  0  0
   10.2279    0.8233   -4.7382 H   0  0  0  0  0  0  0  0  0  0  0  0
   -2.6199   -0.6018   -1.9778 O   0  0  0  0  0  0  0  0  0  0  0  0
   -3.7698   -0.3960   -1.1638 C   0  0  0  0  0  0  0  0  0  0  0  0
   -4.4127   -1.2605   -1.3342 H   0  0  0  0  0  0  0  0  0  0  0  0
   -4.3062    0.5170   -1.4516 H   0  0  0  0  0  0  0  0  0  0  0  0
   -3.5037   -0.3452   -0.1005 H   0  0  0  0  0  0  0  0  0  0  0  0
  1  6  1  0  0  0  0
  2  1  2  0  0  0  0
  2  3  1  0  0  0  0
  3  4  2  0  0  0  0
  4  5  1  0  0  0  0
  4  9  1  0  0  0  0
  5 10  1  0  0  0  0
  6  5  2  0  0  0  0
  7  1  1  0  0  0  0
  8  2  1  0  0  0  0
 11  3  1  0  0  0  0
 11 12  2  0  0  0  0
 13 18  1  0  0  0  0
 14 13  2  0  0  0  0
 14 15  1  0  0  0  0
 15 27  1  0  0  0  0
 15 16  2  0  0  0  0
 16 17  1  0  0  0  0
 16 21  1  0  0  0  0
 17 22  1  0  0  0  0
 18 23  1  0  0  0  0
 18 17  2  0  0  0  0
 19 13  1  0  0  0  0
 20 14  1  0  0  0  0
 23 24  1  0  0  0  0
 25 23  2  0  0  0  0
 26 23  2  0  0  0  0
 27 28  1  0  0  0  0
 29 27  1  0  0  0  0
 30 27  1  0  0  0  0
 31  6  1  0  0  0  0
 31 32  1  0  0  0  0
 32 35  1  0  0  0  0
 33 32  1  0  0  0  0
 34 32  1  0  0  0  0
M  RAD  2  12   2  24   2
M  END
