Coordinates from ORCA-job p-CH3O-Ph-N2-OTs-B3LYP-6-31G_dp-scan-d09-49-n400
 OpenBabel02051708043D

 35 35  0  0  0  0  0  0  0  0999 V2000
   -0.6446   -0.7277   -2.2057 C   0  0  0  0  0  0  0  0  0  0  0  0
    0.7100   -0.5972   -2.4815 C   0  0  0  0  0  0  0  0  0  0  0  0
    1.2438    0.6746   -2.7034 C   0  0  0  0  0  0  0  0  0  0  0  0
    0.4379    1.8066   -2.6618 C   0  0  0  0  0  0  0  0  0  0  0  0
   -0.9258    1.6774   -2.3849 C   0  0  0  0  0  0  0  0  0  0  0  0
   -1.4708    0.4071   -2.1555 C   0  0  0  0  0  0  0  0  0  0  0  0
   -1.0902   -1.7006   -2.0261 H   0  0  0  0  0  0  0  0  0  0  0  0
    1.3577   -1.4656   -2.5284 H   0  0  0  0  0  0  0  0  0  0  0  0
    0.8761    2.7812   -2.8461 H   0  0  0  0  0  0  0  0  0  0  0  0
   -1.5445    2.5665   -2.3548 H   0  0  0  0  0  0  0  0  0  0  0  0
    4.2561    2.2706   -0.1181 N   0  0  0  0  0  0  0  0  0  0  0  0
    4.7871    1.3212   -0.3147 N   0  0  0  0  0  0  0  0  0  0  0  0
    5.6625   -0.1642   -3.8950 C   0  0  0  0  0  0  0  0  0  0  0  0
    7.0227    0.0129   -3.6628 C   0  0  0  0  0  0  0  0  0  0  0  0
    7.6115    1.2868   -3.7286 C   0  0  0  0  0  0  0  0  0  0  0  0
    6.7989    2.3855   -4.0388 C   0  0  0  0  0  0  0  0  0  0  0  0
    5.4328    2.2299   -4.2728 C   0  0  0  0  0  0  0  0  0  0  0  0
    4.8786    0.9532   -4.1938 C   0  0  0  0  0  0  0  0  0  0  0  0
    5.2107   -1.1497   -3.8579 H   0  0  0  0  0  0  0  0  0  0  0  0
    7.6402   -0.8507   -3.4298 H   0  0  0  0  0  0  0  0  0  0  0  0
    7.2405    3.3763   -4.1028 H   0  0  0  0  0  0  0  0  0  0  0  0
    4.8050    3.0777   -4.5244 H   0  0  0  0  0  0  0  0  0  0  0  0
    3.1387    0.7386   -4.5051 S   0  0  0  0  0  0  0  0  0  0  0  0
    2.6277    0.8177   -2.9119 O   0  0  0  0  0  0  0  0  0  0  0  0
    2.8849   -0.6129   -5.0005 O   0  0  0  0  0  0  0  0  0  0  0  0
    2.6140    1.9030   -5.2160 O   0  0  0  0  0  0  0  0  0  0  0  0
    9.0901    1.4569   -3.4744 C   0  0  0  0  0  0  0  0  0  0  0  0
    9.6834    0.8683   -4.1830 H   0  0  0  0  0  0  0  0  0  0  0  0
    9.3959    2.5022   -3.5664 H   0  0  0  0  0  0  0  0  0  0  0  0
    9.3589    1.1141   -2.4685 H   0  0  0  0  0  0  0  0  0  0  0  0
   -2.7841    0.1667   -1.8752 O   0  0  0  0  0  0  0  0  0  0  0  0
   -3.6745    1.2702   -1.8259 C   0  0  0  0  0  0  0  0  0  0  0  0
   -4.6570    0.8548   -1.5959 H   0  0  0  0  0  0  0  0  0  0  0  0
   -3.7215    1.7959   -2.7888 H   0  0  0  0  0  0  0  0  0  0  0  0
   -3.3925    1.9842   -1.0408 H   0  0  0  0  0  0  0  0  0  0  0  0
  1  6  1  0  0  0  0
  1  7  1  0  0  0  0
  2  1  2  0  0  0  0
  3  4  2  0  0  0  0
  3  2  1  0  0  0  0
  4  5  1  0  0  0  0
  5 10  1  0  0  0  0
  5  6  2  0  0  0  0
  6 31  1  0  0  0  0
  8  2  1  0  0  0  0
  9  4  1  0  0  0  0
 12 11  3  0  0  0  0
 13 19  1  0  0  0  0
 13 14  2  0  0  0  0
 14 20  1  0  0  0  0
 15 14  1  0  0  0  0
 15 27  1  0  0  0  0
 16 15  2  0  0  0  0
 17 18  2  0  0  0  0
 17 16  1  0  0  0  0
 18 13  1  0  0  0  0
 21 16  1  0  0  0  0
 22 17  1  0  0  0  0
 23 18  1  0  0  0  0
 23 24  1  0  0  0  0
 24  3  1  0  0  0  0
 25 23  2  0  0  0  0
 26 23  2  0  0  0  0
 27 30  1  0  0  0  0
 28 27  1  0  0  0  0
 29 27  1  0  0  0  0
 31 32  1  0  0  0  0
 32 33  1  0  0  0  0
 32 35  1  0  0  0  0
 34 32  1  0  0  0  0
M  END
