Coordinates from ORCA-job p-CH3O-Ph-N2-OTs-B3LYP-6-31G_dp-scan-d09-49-n400
 OpenBabel02051708043D

 35 34  0  0  0  0  0  0  0  0999 V2000
   -0.5689   -0.0559   -2.8031 C   0  0  0  0  0  0  0  0  0  0  0  0
    0.4806    0.7226   -2.3077 C   0  0  0  0  0  0  0  0  0  0  0  0
    0.2023    1.6404   -1.4909 C   0  0  0  0  0  0  0  0  0  0  0  0
   -0.9311    2.1368   -0.9134 C   0  0  0  0  0  0  0  0  0  0  0  0
   -2.0222    1.3737   -1.3902 C   0  0  0  0  0  0  0  0  0  0  0  0
   -1.8480    0.3083   -2.3084 C   0  0  0  0  0  0  0  0  0  0  0  0
   -0.4768   -0.8734   -3.5107 H   0  0  0  0  0  0  0  0  0  0  0  0
    2.3632    0.5598   -2.8822 H   0  0  0  0  0  0  0  0  0  0  0  0
   -1.0299    2.9582   -0.2155 H   0  0  0  0  0  0  0  0  0  0  0  0
   -3.0124    1.6267   -1.0295 H   0  0  0  0  0  0  0  0  0  0  0  0
    2.2537    3.4516    0.0603 N   0  0  0  0  0  0  0  0  0  0  0  0
    3.3023    3.5347    0.3987 N   0  0  0  0  0  0  0  0  0  0  0  0
    6.4556    1.5587   -2.9283 C   0  0  0  0  0  0  0  0  0  0  0  0
    7.7897    1.2025   -3.1113 C   0  0  0  0  0  0  0  0  0  0  0  0
    8.2407    0.6803   -4.3334 C   0  0  0  0  0  0  0  0  0  0  0  0
    7.3187    0.5327   -5.3800 C   0  0  0  0  0  0  0  0  0  0  0  0
    5.9800    0.8842   -5.2168 C   0  0  0  0  0  0  0  0  0  0  0  0
    5.5604    1.3894   -3.9859 C   0  0  0  0  0  0  0  0  0  0  0  0
    6.1096    1.9772   -1.9894 H   0  0  0  0  0  0  0  0  0  0  0  0
    8.4944    1.3385   -2.2947 H   0  0  0  0  0  0  0  0  0  0  0  0
    7.6551    0.1434   -6.3374 H   0  0  0  0  0  0  0  0  0  0  0  0
    5.2695    0.7849   -6.0304 H   0  0  0  0  0  0  0  0  0  0  0  0
    3.8524    1.8528   -3.7686 S   0  0  0  0  0  0  0  0  0  0  0  0
    3.7478    2.8508   -2.7004 O   0  0  0  0  0  0  0  0  0  0  0  0
    3.2945    0.4291   -3.2035 O   0  0  0  0  0  0  0  0  0  0  0  0
    3.2542    2.1218   -5.0757 O   0  0  0  0  0  0  0  0  0  0  0  0
    9.6833    0.2706   -4.5106 C   0  0  0  0  0  0  0  0  0  0  0  0
   10.3558    0.9107   -3.9321 H   0  0  0  0  0  0  0  0  0  0  0  0
    9.8415   -0.7602   -4.1691 H   0  0  0  0  0  0  0  0  0  0  0  0
    9.9866    0.3163   -5.5607 H   0  0  0  0  0  0  0  0  0  0  0  0
   -2.8771   -0.4456   -2.7894 O   0  0  0  0  0  0  0  0  0  0  0  0
   -4.2019   -0.1439   -2.3783 C   0  0  0  0  0  0  0  0  0  0  0  0
   -4.8465   -0.8588   -2.8913 H   0  0  0  0  0  0  0  0  0  0  0  0
   -4.4919    0.8747   -2.6672 H   0  0  0  0  0  0  0  0  0  0  0  0
   -4.3251   -0.2618   -1.2934 H   0  0  0  0  0  0  0  0  0  0  0  0
  1  6  2  0  0  0  0
  1  2  1  0  0  0  0
  2  3  2  0  0  0  0
  3  4  1  0  0  0  0
  4  9  1  0  0  0  0
  5 10  1  0  0  0  0
  5  4  2  0  0  0  0
  6  5  1  0  0  0  0
  7  1  1  0  0  0  0
 11 12  3  0  0  0  0
 13 19  1  0  0  0  0
 14 13  1  0  0  0  0
 14 20  1  0  0  0  0
 15 14  2  0  0  0  0
 16 17  2  0  0  0  0
 16 15  1  0  0  0  0
 17 18  1  0  0  0  0
 18 23  1  0  0  0  0
 18 13  2  0  0  0  0
 21 16  1  0  0  0  0
 22 17  1  0  0  0  0
 23 25  1  0  0  0  0
 23 24  2  0  0  0  0
 25  8  1  0  0  0  0
 26 23  2  0  0  0  0
 27 15  1  0  0  0  0
 27 29  1  0  0  0  0
 27 28  1  0  0  0  0
 30 27  1  0  0  0  0
 31 32  1  0  0  0  0
 31  6  1  0  0  0  0
 32 35  1  0  0  0  0
 33 32  1  0  0  0  0
 34 32  1  0  0  0  0
M  RAD  2   2   2   3   2
M  END
