Coordinates from ORCA-job p-CH3O-Ph-N2-OTs-B3LYP-6-31G_dp-scan-d09-49-n400
 OpenBabel02051708043D

 35 35  0  0  0  0  0  0  0  0999 V2000
   -0.6570   -0.7332   -2.2120 C   0  0  0  0  0  0  0  0  0  0  0  0
    0.6980   -0.5972   -2.4833 C   0  0  0  0  0  0  0  0  0  0  0  0
    1.2270    0.6765   -2.7049 C   0  0  0  0  0  0  0  0  0  0  0  0
    0.4161    1.8052   -2.6674 C   0  0  0  0  0  0  0  0  0  0  0  0
   -0.9479    1.6704   -2.3952 C   0  0  0  0  0  0  0  0  0  0  0  0
   -1.4882    0.3981   -2.1660 C   0  0  0  0  0  0  0  0  0  0  0  0
   -1.0991   -1.7078   -2.0328 H   0  0  0  0  0  0  0  0  0  0  0  0
    1.3495   -1.4629   -2.5271 H   0  0  0  0  0  0  0  0  0  0  0  0
    0.8508    2.7814   -2.8517 H   0  0  0  0  0  0  0  0  0  0  0  0
   -1.5705    2.5569   -2.3684 H   0  0  0  0  0  0  0  0  0  0  0  0
    4.5219    2.3401   -0.0975 N   0  0  0  0  0  0  0  0  0  0  0  0
    4.9975    1.3673   -0.3197 N   0  0  0  0  0  0  0  0  0  0  0  0
    5.6442   -0.1600   -3.8826 C   0  0  0  0  0  0  0  0  0  0  0  0
    7.0052    0.0101   -3.6497 C   0  0  0  0  0  0  0  0  0  0  0  0
    7.6012    1.2804   -3.7186 C   0  0  0  0  0  0  0  0  0  0  0  0
    6.7946    2.3832   -4.0302 C   0  0  0  0  0  0  0  0  0  0  0  0
    5.4277    2.2347   -4.2644 C   0  0  0  0  0  0  0  0  0  0  0  0
    4.8665    0.9612   -4.1841 C   0  0  0  0  0  0  0  0  0  0  0  0
    5.1872   -1.1430   -3.8440 H   0  0  0  0  0  0  0  0  0  0  0  0
    7.6177   -0.8564   -3.4145 H   0  0  0  0  0  0  0  0  0  0  0  0
    7.2417    3.3714   -4.0960 H   0  0  0  0  0  0  0  0  0  0  0  0
    4.8046    3.0855   -4.5174 H   0  0  0  0  0  0  0  0  0  0  0  0
    3.1263    0.7546   -4.5002 S   0  0  0  0  0  0  0  0  0  0  0  0
    2.6112    0.8249   -2.9084 O   0  0  0  0  0  0  0  0  0  0  0  0
    2.8694   -0.5928   -5.0051 O   0  0  0  0  0  0  0  0  0  0  0  0
    2.6078    1.9252   -5.2054 O   0  0  0  0  0  0  0  0  0  0  0  0
    9.0814    1.4422   -3.4689 C   0  0  0  0  0  0  0  0  0  0  0  0
    9.6693    0.8776   -4.2015 H   0  0  0  0  0  0  0  0  0  0  0  0
    9.3870    2.4899   -3.5291 H   0  0  0  0  0  0  0  0  0  0  0  0
    9.3579    1.0659   -2.4774 H   0  0  0  0  0  0  0  0  0  0  0  0
   -2.8014    0.1523   -1.8897 O   0  0  0  0  0  0  0  0  0  0  0  0
   -3.6966    1.2522   -1.8440 C   0  0  0  0  0  0  0  0  0  0  0  0
   -4.6780    0.8329   -1.6167 H   0  0  0  0  0  0  0  0  0  0  0  0
   -3.7429    1.7769   -2.8075 H   0  0  0  0  0  0  0  0  0  0  0  0
   -3.4199    1.9680   -1.0587 H   0  0  0  0  0  0  0  0  0  0  0  0
  1  6  1  0  0  0  0
  1  7  1  0  0  0  0
  2  1  2  0  0  0  0
  3  4  2  0  0  0  0
  3  2  1  0  0  0  0
  4  5  1  0  0  0  0
  5 10  1  0  0  0  0
  5  6  2  0  0  0  0
  6 31  1  0  0  0  0
  8  2  1  0  0  0  0
  9  4  1  0  0  0  0
 12 11  3  0  0  0  0
 13 19  1  0  0  0  0
 13 14  2  0  0  0  0
 14 20  1  0  0  0  0
 15 14  1  0  0  0  0
 15 27  1  0  0  0  0
 16 15  2  0  0  0  0
 17 18  2  0  0  0  0
 17 16  1  0  0  0  0
 18 13  1  0  0  0  0
 21 16  1  0  0  0  0
 22 17  1  0  0  0  0
 23 18  1  0  0  0  0
 23 24  1  0  0  0  0
 24  3  1  0  0  0  0
 25 23  2  0  0  0  0
 26 23  2  0  0  0  0
 27 30  1  0  0  0  0
 28 27  1  0  0  0  0
 29 27  1  0  0  0  0
 31 32  1  0  0  0  0
 32 33  1  0  0  0  0
 32 35  1  0  0  0  0
 34 32  1  0  0  0  0
M  END
