Coordinates from ORCA-job p-CH3O-Ph-N2-OTs-B3LYP-6-31G_dp-scan-d09-49-n400
 OpenBabel02051708043D

 35 34  0  0  0  0  0  0  0  0999 V2000
   -0.2943    0.3574   -3.0987 C   0  0  0  0  0  0  0  0  0  0  0  0
    0.6405    1.4063   -3.0152 C   0  0  0  0  0  0  0  0  0  0  0  0
    0.2837    2.2352   -2.0308 C   0  0  0  0  0  0  0  0  0  0  0  0
   -0.7003    2.3318   -1.1030 C   0  0  0  0  0  0  0  0  0  0  0  0
   -1.5999    1.2543   -1.2288 C   0  0  0  0  0  0  0  0  0  0  0  0
   -1.3953    0.2756   -2.2209 C   0  0  0  0  0  0  0  0  0  0  0  0
   -0.1604   -0.4137   -3.8513 H   0  0  0  0  0  0  0  0  0  0  0  0
    1.5546    1.4981   -3.6894 H   0  0  0  0  0  0  0  0  0  0  0  0
   -0.8062    3.1112   -0.3605 H   0  0  0  0  0  0  0  0  0  0  0  0
   -2.4401    1.2094   -0.5468 H   0  0  0  0  0  0  0  0  0  0  0  0
    1.5285    3.8951   -1.8469 N   0  0  0  0  0  0  0  0  0  0  0  0
    1.8932    4.9312   -1.7244 N   0  0  0  0  0  0  0  0  0  0  0  0
    5.7230    0.4743   -3.1003 C   0  0  0  0  0  0  0  0  0  0  0  0
    6.9306   -0.1914   -3.2942 C   0  0  0  0  0  0  0  0  0  0  0  0
    7.8850    0.2875   -4.2061 C   0  0  0  0  0  0  0  0  0  0  0  0
    7.5952    1.4590   -4.9159 C   0  0  0  0  0  0  0  0  0  0  0  0
    6.3883    2.1365   -4.7314 C   0  0  0  0  0  0  0  0  0  0  0  0
    5.4545    1.6384   -3.8247 C   0  0  0  0  0  0  0  0  0  0  0  0
    4.9947    0.1125   -2.3817 H   0  0  0  0  0  0  0  0  0  0  0  0
    7.1391   -1.0963   -2.7273 H   0  0  0  0  0  0  0  0  0  0  0  0
    8.3256    1.8502   -5.6208 H   0  0  0  0  0  0  0  0  0  0  0  0
    6.1704    3.0522   -5.2707 H   0  0  0  0  0  0  0  0  0  0  0  0
    3.8777    2.4788   -3.6244 S   0  0  0  0  0  0  0  0  0  0  0  0
    3.4863    2.2899   -2.1926 O   0  0  0  0  0  0  0  0  0  0  0  0
    2.9188    1.7272   -4.5325 O   0  0  0  0  0  0  0  0  0  0  0  0
    4.0789    3.8832   -4.0339 O   0  0  0  0  0  0  0  0  0  0  0  0
    9.1952   -0.4404   -4.3996 C   0  0  0  0  0  0  0  0  0  0  0  0
    9.8007   -0.4215   -3.4847 H   0  0  0  0  0  0  0  0  0  0  0  0
    9.0334   -1.4941   -4.6549 H   0  0  0  0  0  0  0  0  0  0  0  0
    9.7882    0.0115   -5.2000 H   0  0  0  0  0  0  0  0  0  0  0  0
   -2.2067   -0.7907   -2.4125 O   0  0  0  0  0  0  0  0  0  0  0  0
   -3.3342   -0.9598   -1.5597 C   0  0  0  0  0  0  0  0  0  0  0  0
   -3.8250   -1.8743   -1.8936 H   0  0  0  0  0  0  0  0  0  0  0  0
   -4.0338   -0.1190   -1.6500 H   0  0  0  0  0  0  0  0  0  0  0  0
   -3.0298   -1.0738   -0.5119 H   0  0  0  0  0  0  0  0  0  0  0  0
  1  2  2  0  0  0  0
  1  6  1  0  0  0  0
  2  3  1  0  0  0  0
  3  4  2  0  0  0  0
  4  9  1  0  0  0  0
  5  4  1  0  0  0  0
  5 10  1  0  0  0  0
  6  5  2  0  0  0  0
  7  1  1  0  0  0  0
  8  2  1  0  0  0  0
 11 12  3  0  0  0  0
 13 19  1  0  0  0  0
 14 13  1  0  0  0  0
 14 20  1  0  0  0  0
 15 14  2  0  0  0  0
 16 17  2  0  0  0  0
 16 15  1  0  0  0  0
 17 18  1  0  0  0  0
 18 23  1  0  0  0  0
 18 13  2  0  0  0  0
 21 16  1  0  0  0  0
 22 17  1  0  0  0  0
 23 24  1  0  0  0  0
 25 23  2  0  0  0  0
 26 23  2  0  0  0  0
 27 15  1  0  0  0  0
 27 28  1  0  0  0  0
 29 27  1  0  0  0  0
 30 27  1  0  0  0  0
 31  6  1  0  0  0  0
 31 32  1  0  0  0  0
 32 35  1  0  0  0  0
 33 32  1  0  0  0  0
 34 32  1  0  0  0  0
M  RAD  2   3   2  24   2
M  END
