Coordinates from ORCA-job p-CH3O-Ph-N2-OTs-B3LYP-6-31G_dp-scan-d09-49-n400
 OpenBabel02051708043D

 35 35  0  0  0  0  0  0  0  0999 V2000
   -0.6265   -0.7149   -2.2172 C   0  0  0  0  0  0  0  0  0  0  0  0
    0.7275   -0.6056   -2.5055 C   0  0  0  0  0  0  0  0  0  0  0  0
    1.2819    0.6592   -2.7171 C   0  0  0  0  0  0  0  0  0  0  0  0
    0.4977    1.8050   -2.6520 C   0  0  0  0  0  0  0  0  0  0  0  0
   -0.8650    1.6972   -2.3614 C   0  0  0  0  0  0  0  0  0  0  0  0
   -1.4310    0.4343   -2.1431 C   0  0  0  0  0  0  0  0  0  0  0  0
   -1.0879   -1.6818   -2.0456 H   0  0  0  0  0  0  0  0  0  0  0  0
    1.3588   -1.4848   -2.5705 H   0  0  0  0  0  0  0  0  0  0  0  0
    0.9523    2.7737   -2.8275 H   0  0  0  0  0  0  0  0  0  0  0  0
   -1.4668    2.5971   -2.3125 H   0  0  0  0  0  0  0  0  0  0  0  0
    3.6299    2.0600   -0.0245 N   0  0  0  0  0  0  0  0  0  0  0  0
    4.2975    1.1790   -0.0303 N   0  0  0  0  0  0  0  0  0  0  0  0
    5.7108   -0.1756   -3.9210 C   0  0  0  0  0  0  0  0  0  0  0  0
    7.0679    0.0289   -3.6916 C   0  0  0  0  0  0  0  0  0  0  0  0
    7.6328    1.3128   -3.7687 C   0  0  0  0  0  0  0  0  0  0  0  0
    6.8000    2.3932   -4.0900 C   0  0  0  0  0  0  0  0  0  0  0  0
    5.4371    2.2101   -4.3220 C   0  0  0  0  0  0  0  0  0  0  0  0
    4.9064    0.9242   -4.2297 C   0  0  0  0  0  0  0  0  0  0  0  0
    5.2774   -1.1689   -3.8755 H   0  0  0  0  0  0  0  0  0  0  0  0
    7.7016   -0.8212   -3.4527 H   0  0  0  0  0  0  0  0  0  0  0  0
    7.2234    3.3912   -4.1652 H   0  0  0  0  0  0  0  0  0  0  0  0
    4.7941    3.0435   -4.5830 H   0  0  0  0  0  0  0  0  0  0  0  0
    3.1692    0.6765   -4.5310 S   0  0  0  0  0  0  0  0  0  0  0  0
    2.6663    0.7826   -2.9370 O   0  0  0  0  0  0  0  0  0  0  0  0
    2.9344   -0.6893   -4.9958 O   0  0  0  0  0  0  0  0  0  0  0  0
    2.6232    1.8169   -5.2641 O   0  0  0  0  0  0  0  0  0  0  0  0
    9.1057    1.5152   -3.5056 C   0  0  0  0  0  0  0  0  0  0  0  0
    9.7145    0.8363   -4.1120 H   0  0  0  0  0  0  0  0  0  0  0  0
    9.4167    2.5391   -3.7291 H   0  0  0  0  0  0  0  0  0  0  0  0
    9.3483    1.3137   -2.4553 H   0  0  0  0  0  0  0  0  0  0  0  0
   -2.7455    0.2144   -1.8516 O   0  0  0  0  0  0  0  0  0  0  0  0
   -3.6151    1.3332   -1.7804 C   0  0  0  0  0  0  0  0  0  0  0  0
   -4.6028    0.9328   -1.5456 H   0  0  0  0  0  0  0  0  0  0  0  0
   -3.6619    1.8711   -2.7365 H   0  0  0  0  0  0  0  0  0  0  0  0
   -3.3129    2.0326   -0.9897 H   0  0  0  0  0  0  0  0  0  0  0  0
  1  6  1  0  0  0  0
  1  7  1  0  0  0  0
  2  1  2  0  0  0  0
  3  4  2  0  0  0  0
  3  2  1  0  0  0  0
  4  5  1  0  0  0  0
  5 10  1  0  0  0  0
  5  6  2  0  0  0  0
  6 31  1  0  0  0  0
  8  2  1  0  0  0  0
  9  4  1  0  0  0  0
 12 11  3  0  0  0  0
 13 19  1  0  0  0  0
 13 14  2  0  0  0  0
 14 20  1  0  0  0  0
 15 14  1  0  0  0  0
 15 27  1  0  0  0  0
 16 15  2  0  0  0  0
 17 18  2  0  0  0  0
 17 16  1  0  0  0  0
 18 13  1  0  0  0  0
 21 16  1  0  0  0  0
 22 17  1  0  0  0  0
 23 18  1  0  0  0  0
 23 24  1  0  0  0  0
 24  3  1  0  0  0  0
 25 23  2  0  0  0  0
 26 23  2  0  0  0  0
 27 30  1  0  0  0  0
 28 27  1  0  0  0  0
 29 27  1  0  0  0  0
 31 32  1  0  0  0  0
 32 33  1  0  0  0  0
 32 35  1  0  0  0  0
 34 32  1  0  0  0  0
M  END
