15
Coordinates from ORCA-job 2-HOOC-C6H3-N2-B3LYPG-aug-cc-pVDZ-scan-d09-49-n400
C         -1.90060       -1.50300       -1.05440
C         -0.56720       -1.12750       -1.09610
C         -0.08480        0.01590       -0.93330
C         -0.80470        1.17720       -0.66950
C         -2.19640        0.91030       -0.60370
C         -2.72190       -0.37830       -0.78880
H         -2.30680       -2.50240       -1.19810
H         -2.86370        1.74860       -0.40130
N          4.77050        0.16750       -0.46700
N          5.04870        0.15010       -1.53570
H         -3.80160       -0.52470       -0.72700
C         -0.27270        2.54740       -0.47060
O         -0.95270        3.52660       -0.24230
O          1.07830        2.59480       -0.57230
H          1.33430        3.52020       -0.42910
