15
Coordinates from ORCA-job 2-HOOC-4-Br-C6H2-N2-NEB-TS_CI-NEB_converged
  C   -0.92037413768215     -2.17102663006035     -0.31428000655529
  C   0.47607101711319     -1.93485276781593     -0.34585085322879
  C   0.78584142552703     -0.65563690240410     -0.14719571069272
  C   0.01730051473684      0.49603190030881      0.08977768619864
  C   -1.35328027333811      0.21539445509391      0.11941404525773
  C   -1.79489098403679     -1.10457099069925     -0.08033238453813
  H   -1.33343445630677     -3.16936271859900     -0.46804985853733
  H   -2.05329564111055      1.02911399384821      0.29413806085147
  N   2.40340854201605     -0.42120788788991     -0.19676255798006
  N   3.48426877103794     -0.64209917436260     -0.31874159136929
  Br  -3.69107609023122     -1.42837631827567     -0.02535585646126
  C   0.45960460468843      1.90240172149824      0.29447117411202
  O   -0.28522748759796      2.83444612663751      0.49909992589316
  O   1.81101483555904      2.05334618227522      0.22830788004945
  H   1.99406935962504      2.99639901044491      0.37136004700041
