15
Coordinates from ORCA-job 2-HOOC-4-Br-C6H2-N2-source-RB3LYPG-aug-cc-pVDZ
  C   -1.37863304923281     -1.49154851623313     -1.05818578583968
  C   0.03230925520200     -1.31343398736278     -1.11007331479082
  C   0.39227823111461      0.02372967441844     -0.90315955610646
  C   -0.43533098238953      1.16618771996148     -0.66057216176036
  C   -1.79400244908362      0.89665278378577     -0.62676308404363
  C   -2.24314107252690     -0.42715219251381     -0.82558651494579
  H   -1.80404255079069     -2.48700451507581     -1.20371538694701
  H   -2.49269485367868      1.70972944274995     -0.44752081285223
  N   1.78522720559400      0.16800970958234     -0.95852151305303
  N   2.89844191094459      0.15771702902578     -1.02207235246037
  Br  -4.14085306896984     -0.72731743290319     -0.76484725876702
  C   -0.00147560518172      2.57593428412289     -0.44648610086637
  O   -0.75042480991131      3.50677519426390     -0.25239443706052
  O   1.34885884614948      2.72992455891496     -0.51291635583923
  H   1.53257299276042      3.67288624726321     -0.37107536466747
