15
Coordinates from ORCA-job 2-HOOC-C6H3-N2-NEB-TS
  C   -0.97132068096829     -2.16263051646171     -0.30398320384548
  C   0.43386145901749     -1.94498459116830     -0.35654410229671
  C   0.73857845297948     -0.65950436868568     -0.15851122201769
  C   -0.03661145988731      0.49064377956630      0.08534782934256
  C   -1.40626169754613      0.20402240653044      0.12389432928716
  C   -1.86433555621383     -1.11178503630030     -0.06958125399793
  H   -1.37517568636349     -3.16889208742250     -0.44845920370941
  H   -2.09915080467122      1.02353335750603      0.30655594031179
  N   2.33504219753902     -0.44274274191860     -0.22365303144005
  N   3.41558900724043     -0.67529911951763     -0.33181209198580
  H   -2.93876321596512     -1.30435480128368     -0.03397747796733
  C   0.40586956315942      1.89204420670197      0.29435704267463
  O   -0.33455017890080      2.82917759058725      0.49994411241912
  O   1.75888165609951      2.04397593053030      0.23416606801961
  H   1.93834694448082      2.98679599133613      0.38225626520552
