14
Coordinates from ORCA-job 2-NO2-C6H3-N2-NEB-TS_CI-NEB_converged
  C   -1.05168704530916     -1.15265697224347     -1.44447894478852
  C   0.36861555449393     -1.16714961738681     -1.36818896515744
  C   0.83335956368044     -0.38288663530475     -0.40262998128166
  C   0.17425841629059      0.43263153674704      0.52555765596851
  C   -1.21460273558285      0.41724672193654      0.42485350167002
  C   -1.81905115794594     -0.38100130253044     -0.56434608508368
  H   -1.56840632274167     -1.74950960806023     -2.20226653530184
  N   2.46088865164291     -0.38993692824188     -0.30023938211718
  N   3.50093084106461     -0.67728855079958     -0.55936629736761
  H   -2.90834235628177     -0.38989401647579     -0.63504678044505
  H   -1.79834558291317      1.02499040425025      1.11208330967196
  N   0.82945906282711      1.25838292735741      1.54148997567958
  O   2.06455759578438      1.24250356722091      1.57084723863422
  O   0.12836551499060      1.91456847353080      2.30173128991866
