14
Coordinates from ORCA-job 2-NO2-C6H3-N2-NEB-TS
  C   -1.05150404148321     -1.15426046674100     -1.44036698644598
  C   0.36948729935835     -1.16675145616991     -1.36757192430942
  C   0.83428838900758     -0.38171142182861     -0.40310756802371
  C   0.17310033286154      0.43288036965156      0.52536004151003
  C   -1.21596851556546      0.41994923699417      0.42314159151316
  C   -1.82002403146599     -0.37857079094237     -0.56537722071128
  H   -1.56780467876038     -1.75860924035442     -2.19120344806354
  N   2.46327629354355     -0.38551981252702     -0.30572944456925
  N   3.50499286671830     -0.66561528222034     -0.56550966640075
  H   -2.90917926677145     -0.38341086408965     -0.63980792304470
  H   -1.80145382692884      1.02687550291186      1.10960141215079
  N   0.82790097684422      1.25282787396472      1.54327976448348
  O   2.06279867256651      1.22024231249560      1.58204032109811
  O   0.13008953007528      1.92167403885541      2.29525105081306
