14
Coordinates from ORCA-job 3-NO2-C6H3-N2-v1-final-RB3LYPG-aug-cc-pVDZ
  C   -2.38461701245330      0.15676944594514     -1.33193215085583
  C   -1.09505785391873     -0.16353739432971     -0.92358528057060
  C   -0.41131542964678      0.42213244838802     -0.05354936260605
  C   -0.76354241710340      1.51860151019260      0.70761630154178
  C   -2.07598173665846      1.91643759462748      0.35413563008425
  C   -2.86657066542903      1.27396357465317     -0.62174170959950
  H   -2.97766478624032     -0.35290541528233     -2.08802690464167
  H   -0.18644194965952      2.03988376920641      1.46520582909008
  N   2.62609634525692      0.55254868734745      1.67320682891459
  N   3.47298693169998     -0.13911172223527      1.52034409456579
  H   -3.86446734350299      1.66040183498427     -0.81788854584239
  N   -2.64848007756364      3.08445172503862      1.06003973185306
  O   -3.78700503768181      3.43650514572945      0.76321581901501
  O   -1.94923896709892      3.63204879573468      1.90825971905149
