14
Coordinates from ORCA-job 3-NO2-C6H3-N2-v1-source-RB3LYPG-aug-cc-pVDZ
  C   -1.87832986892027      0.12088724349723     -1.09450111103778
  C   -0.55354082813672     -0.26792661547161     -0.72732769019452
  C   -0.07296260846032      0.59222749996914      0.27247274316013
  C   -0.66728610726181      1.70184137049111      0.91722989037446
  C   -1.94536199956908      1.97648590131118      0.47601506656237
  C   -2.56111677804690      1.19376894078304     -0.52856081580596
  H   -2.39747287934426     -0.45289279907917     -1.86690222201938
  H   -0.18917360858793      2.30079916588378      1.68964300860194
  N   1.23497360132634      0.26524695956599      0.68417597611884
  N   2.26786508725550     -0.05619864875789      0.95454555338976
  H   -3.57197899464764      1.45604605301564     -0.83852589535671
  N   -2.67153704559028      3.11018122810008      1.07151186247718
  O   -3.80727139810455      3.33505165396090      0.66355963123386
  O   -2.09811657191207      3.76267204673057      1.94196400249581
