14
Coordinates from ORCA-job 3-NO2-C6H3-N2-v2-source-RB3LYPG-aug-cc-pVDZ
  C   -1.92814635403372      0.09967517918723     -1.11554610436200
  C   -0.64250887540654     -0.24107443479831     -0.73460347283374
  C   -0.07436147805882      0.58387751712258      0.26841482160866
  C   -0.59520355206804      1.68796394293486      0.94928031685935
  C   -1.89334951842342      1.93223270457873      0.47862935646048
  C   -2.56211499854668      1.20476263404509     -0.50511703688780
  H   -2.44878545095013     -0.47543272676048     -1.87950514814669
  N   1.23837937622404      0.26754003332204      0.67540908131070
  N   2.27210988344504      0.07885024743121      1.04931724071060
  H   -3.57080256283952      1.48875569253786     -0.80067987531675
  N   -2.66045241510914      3.08768121552898      1.07697084292731
  O   -3.74624476878725      3.36673078041181      0.56155968047623
  O   -2.17401267385196      3.67174720606478      2.02963549291731
  H   -0.10939661159387     -1.08371999160640     -1.17595519572367
