16
Coordinates from ORCA-job 4-CH3O-C6H3-N2-NEB-TS_CI-NEB_converged
  C   -0.01427510397726     -0.80771786250280     -0.07176732733128
  C   1.31367016727333     -0.89099702416765     -0.48656117308890
  C   1.94420779291764      0.34449816221734     -0.56330791047472
  C   1.54405833164450      1.59594783339411     -0.32273099914483
  C   0.20129688869709      1.64678581241838      0.09354532904815
  C   -0.56624289742729      0.46799783341643      0.21763474075001
  H   -0.60226568869218     -1.71671009801275      0.02274134755603
  H   1.79606087600540     -1.83986481138514     -0.72381752420897
  H   -0.29667096629468      2.58957918098879      0.33500740092424
  N   3.49541182361374      0.23636341139979     -1.04885923690354
  N   4.52494900452556      0.55383781039472     -1.33433222368926
  O   -1.85457148313547      0.64157759052164      0.62879710387978
  C   -2.69640393313855     -0.49669723909428      0.77945489013142
  H   -3.66309073360378     -0.10723983081463      1.11233581063473
  H   -2.30051770717136     -1.18943568539288      1.53785805188509
  H   -2.82561637123668     -1.02792508338107     -0.17599827996794
