15
Coordinates from ORCA-job 4-HOOC-C6H3-N2-final-RB3LYPG-aug-cc-pVDZ
  C   -1.80938014421478     -1.75344081161144     -1.08692374167516
  C   -0.45865039286626     -1.46899507703837     -1.11778804998010
  C   0.09079251786410     -0.35531382006296     -0.94971603691775
  C   -0.53521900237735      0.85629952555822     -0.69226596001208
  C   -1.93588299053500      0.68576170982208     -0.63775536934697
  C   -2.55819583075629     -0.57124514393431     -0.82742783148027
  H   -2.30147944540127     -2.71206231326191     -1.23049464317395
  H   -0.05849246368876      1.82309062460944     -0.54634776024901
  H   -2.56186335420803      1.55510161660514     -0.44230741149800
  N   3.11827170932119      1.50791606251078     -0.79775836579260
  N   4.06156800426609      0.95632243949399     -0.95577289589690
  C   -4.04055354691651     -0.72141215473053     -0.76449697013168
  O   -4.63735120520384     -1.76759279836347     -0.91484813626699
  O   -4.68970613303809      0.44692281302872     -0.51013196967975
  H   -5.63625772224520      0.23254732737462     -0.48918485789880
