15
Coordinates from ORCA-job 4-HOOC-C6H3-N2-source-RB3LYPG-aug-cc-pVDZ
  C   -1.41439797851256     -1.47642510238063     -1.06084202786413
  C   0.00329493243303     -1.30255594269854     -1.11670593833254
  C   0.31207042464357      0.04627073689248     -0.89098698309010
  C   -0.52376642937862      1.16818027869333     -0.63587899033310
  C   -1.87377186922092      0.89757389649145     -0.60178063317405
  C   -2.31804053576481     -0.43783698875888     -0.81668430504768
  H   -1.83564349198168     -2.47176367373513     -1.21543539279634
  H   -0.12916185093603      2.17241570121973     -0.47798188859543
  H   -2.59264384259791      1.69052419499930     -0.41357454016193
  N   1.69231097948274      0.29091801127817     -0.93171269591885
  N   2.80008140840854      0.42023467137530     -0.97654963536361
  C   -3.78034422799129     -0.76136082487588     -0.78514743386447
  O   -4.25385388163737     -1.86335323193164     -0.95697416843341
  O   -4.56024670785451      0.32825436836440     -0.54072758805746
  H   -5.47828692909219      0.01281390506654     -0.54220777896687
