12
Coordinates from ORCA-job C6H4-N2-NEB-TS
  C   -0.83597617241676     -0.89911759165958     -1.10643944799803
  C   0.57985214138479     -0.96964048825779     -0.98407446740586
  C   1.00606461518034     -0.14419673980968     -0.01645475470575
  C   0.37225542052110      0.73689388679671      0.86269129188216
  C   -1.00906394733145      0.76163394165749      0.69485254233710
  C   -1.60317944779779     -0.05873798850771     -0.29090297537243
  H   -1.35189159879922     -1.51118879287321     -1.85214830589084
  N   2.59282977683282     -0.18880090631412      0.15846406997141
  N   3.66658237595864     -0.44952834259504      0.02327850343711
  H   -2.68890034772472     -0.02971666505269     -0.41229479963084
  H   -1.62355495576875      1.40912436958109      1.31990765347082
  H   0.89498213996099      1.34327531703452      1.60312068990515
