Ph-N2+-UB3LYP-aug-cc-pVDZ-Triplet.log
 OpenBabel05291812263D
Gaussian home/ubuntu/g09/g09 #p Temperature=298.15 opt=(maxcycles=1024) SCF=(max
 13 13  0  0  0  0  0  0  0  0999 V2000
    1.4798   -1.2271    0.0485 C   0  0  0  0  0  0  0  0  0  0  0  0
    0.1119   -1.2717   -0.0528 C   0  0  0  0  0  0  0  0  0  0  0  0
   -0.6052   -0.0306   -0.1218 C   0  0  0  0  0  0  0  0  0  0  0  0
    0.0530    1.2440   -0.0697 C   0  0  0  0  0  0  0  0  0  0  0  0
    1.4222    1.2653    0.0285 C   0  0  0  0  0  0  0  0  0  0  0  0
    2.1484    0.0362    0.0900 C   0  0  0  0  0  0  0  0  0  0  0  0
    2.0630   -2.1462    0.1007 H   0  0  0  0  0  0  0  0  0  0  0  0
   -0.4401   -2.2102   -0.0911 H   0  0  0  0  0  0  0  0  0  0  0  0
   -1.9902   -0.0689   -0.3811 N   0  0  0  0  0  0  0  0  0  0  0  0
   -2.8581    0.0447    0.4272 N   0  0  0  0  0  0  0  0  0  0  0  0
    3.2358    0.0622    0.1777 H   0  0  0  0  0  0  0  0  0  0  0  0
    1.9614    2.2114    0.0687 H   0  0  0  0  0  0  0  0  0  0  0  0
   -0.5429    2.1549   -0.1157 H   0  0  0  0  0  0  0  0  0  0  0  0
  1  6  1  0  0  0  0
  1  7  1  0  0  0  0
  2  1  2  0  0  0  0
  3  4  2  0  0  0  0
  3  2  1  0  0  0  0
  4  5  1  0  0  0  0
  5 12  1  0  0  0  0
  5  6  2  0  0  0  0
  6 11  1  0  0  0  0
  8  2  1  0  0  0  0
  9  3  1  0  0  0  0
  9 10  2  0  0  0  0
 13  4  1  0  0  0  0
M  RAD  1  10   2
M  END
