Coordinates from ORCA-job Ph-N2-Cl-B3LYPG-6-31G_dp-scan-d09-49-n400
 OpenBabel08281820523D

 14 13  0  0  0  0  0  0  0  0999 V2000
   -1.6575   -1.4518   -1.1744 C   0  0  0  0  0  0  0  0  0  0  0  0
   -0.2771   -1.5668   -1.1063 C   0  0  0  0  0  0  0  0  0  0  0  0
    0.4459   -0.4175   -0.7495 C   0  0  0  0  0  0  0  0  0  0  0  0
   -0.1272    0.8298   -0.4591 C   0  0  0  0  0  0  0  0  0  0  0  0
   -1.5169    0.9008   -0.5395 C   0  0  0  0  0  0  0  0  0  0  0  0
   -2.2715   -0.2215   -0.8918 C   0  0  0  0  0  0  0  0  0  0  0  0
   -2.2578   -2.3131   -1.4465 H   0  0  0  0  0  0  0  0  0  0  0  0
    0.2347   -2.4991   -1.3182 H   0  0  0  0  0  0  0  0  0  0  0  0
    0.5207    1.6829   -0.1868 H   0  0  0  0  0  0  0  0  0  0  0  0
   -2.0073    1.8446   -0.3234 H   0  0  0  0  0  0  0  0  0  0  0  0
    1.8363   -0.4967   -0.6723 N   0  0  0  0  0  0  0  0  0  0  0  0
    2.9030   -0.1652   -0.5106 N   0  0  0  0  0  0  0  0  0  0  0  0
    2.2368    2.9566    0.2692 Cl  0  0  0  0  0  0  0  0  0  0  0  0
   -3.3533   -0.1430   -0.9495 H   0  0  0  0  0  0  0  0  0  0  0  0
  1  2  2  0  0  0  0
  1  6  1  0  0  0  0
  2  3  1  0  0  0  0
  3 11  1  0  0  0  0
  3  4  2  0  0  0  0
  4  9  1  0  0  0  0
  5  4  1  0  0  0  0
  5 10  1  0  0  0  0
  6  5  2  0  0  0  0
  7  1  1  0  0  0  0
  8  2  1  0  0  0  0
 11 12  1  0  0  0  0
 14  6  1  0  0  0  0
M  RAD  3  11   2  12   3  13   2
M  END
