Coordinates from ORCA-job Ph-N2-Cl-B3LYPG-6-31G_dp-scan-d09-49-n400
 OpenBabel08281820523D

 14 13  0  0  0  0  0  0  0  0999 V2000
   -1.6497   -1.4470   -1.1722 C   0  0  0  0  0  0  0  0  0  0  0  0
   -0.2720   -1.5664   -1.1057 C   0  0  0  0  0  0  0  0  0  0  0  0
    0.4529   -0.4131   -0.7484 C   0  0  0  0  0  0  0  0  0  0  0  0
   -0.1176    0.8384   -0.4569 C   0  0  0  0  0  0  0  0  0  0  0  0
   -1.5080    0.9077   -0.5375 C   0  0  0  0  0  0  0  0  0  0  0  0
   -2.2626   -0.2133   -0.8890 C   0  0  0  0  0  0  0  0  0  0  0  0
   -2.2524   -2.3069   -1.4435 H   0  0  0  0  0  0  0  0  0  0  0  0
    0.2370   -2.5002   -1.3180 H   0  0  0  0  0  0  0  0  0  0  0  0
    0.5374    1.6950   -0.1834 H   0  0  0  0  0  0  0  0  0  0  0  0
   -1.9967    1.8523   -0.3213 H   0  0  0  0  0  0  0  0  0  0  0  0
    1.8320   -0.4867   -0.6707 N   0  0  0  0  0  0  0  0  0  0  0  0
    2.9321   -0.2979   -0.5441 N   0  0  0  0  0  0  0  0  0  0  0  0
    2.1208    3.0129    0.2783 Cl  0  0  0  0  0  0  0  0  0  0  0  0
   -3.3445   -0.1350   -0.9465 H   0  0  0  0  0  0  0  0  0  0  0  0
  1  2  2  0  0  0  0
  1  6  1  0  0  0  0
  2  3  1  0  0  0  0
  3 11  1  0  0  0  0
  3  4  2  0  0  0  0
  4  9  1  0  0  0  0
  5  4  1  0  0  0  0
  5 10  1  0  0  0  0
  6  5  2  0  0  0  0
  7  1  1  0  0  0  0
  8  2  1  0  0  0  0
 11 12  1  0  0  0  0
 14  6  1  0  0  0  0
M  RAD  3  11   2  12   3  13   2
M  END
