Coordinates from ORCA-job Ph-N2-Cl-B3LYPG-6-31G_dp-scan-d09-49-n400
 OpenBabel08281820523D

 14 13  0  0  0  0  0  0  0  0999 V2000
   -1.5856   -1.4185   -1.1609 C   0  0  0  0  0  0  0  0  0  0  0  0
   -0.2049   -1.4832   -1.0790 C   0  0  0  0  0  0  0  0  0  0  0  0
    0.4804   -0.3028   -0.7172 C   0  0  0  0  0  0  0  0  0  0  0  0
   -0.1465    0.9101   -0.4404 C   0  0  0  0  0  0  0  0  0  0  0  0
   -1.5387    0.9345   -0.5337 C   0  0  0  0  0  0  0  0  0  0  0  0
   -2.2508   -0.2114   -0.8889 C   0  0  0  0  0  0  0  0  0  0  0  0
   -2.1469   -2.3051   -1.4366 H   0  0  0  0  0  0  0  0  0  0  0  0
    0.3406   -2.3985   -1.2832 H   0  0  0  0  0  0  0  0  0  0  0  0
    0.4676    1.7924   -0.1623 H   0  0  0  0  0  0  0  0  0  0  0  0
   -2.0595    1.8630   -0.3243 H   0  0  0  0  0  0  0  0  0  0  0  0
    1.8852   -0.4224   -0.6496 N   0  0  0  0  0  0  0  0  0  0  0  0
    2.8492   -1.0049   -0.7366 N   0  0  0  0  0  0  0  0  0  0  0  0
    1.9526    3.1613    0.3120 Cl  0  0  0  0  0  0  0  0  0  0  0  0
   -3.3341   -0.1744   -0.9581 H   0  0  0  0  0  0  0  0  0  0  0  0
  1  2  2  0  0  0  0
  1  6  1  0  0  0  0
  2  3  1  0  0  0  0
  3 11  1  0  0  0  0
  3  4  2  0  0  0  0
  4  9  1  0  0  0  0
  5  4  1  0  0  0  0
  5 10  1  0  0  0  0
  6  5  2  0  0  0  0
  7  1  1  0  0  0  0
  8  2  1  0  0  0  0
 12 11  2  0  0  0  0
 14  6  1  0  0  0  0
M  RAD  2  12   2  13   2
M  END
