Coordinates from ORCA-job Ph-N2-Cl-B3LYPG-6-31G_dp-scan-d09-49-n400
 OpenBabel08281820523D

 14 14  0  0  0  0  0  0  0  0999 V2000
   -1.3703   -1.4555   -1.1441 C   0  0  0  0  0  0  0  0  0  0  0  0
   -0.0348   -1.1297   -0.9363 C   0  0  0  0  0  0  0  0  0  0  0  0
    0.2948    0.1885   -0.5864 C   0  0  0  0  0  0  0  0  0  0  0  0
   -0.6936    1.1665   -0.4444 C   0  0  0  0  0  0  0  0  0  0  0  0
   -2.0293    0.8273   -0.6565 C   0  0  0  0  0  0  0  0  0  0  0  0
   -2.3667   -0.4811   -1.0060 C   0  0  0  0  0  0  0  0  0  0  0  0
   -1.6395   -2.4714   -1.4163 H   0  0  0  0  0  0  0  0  0  0  0  0
    0.7481   -1.8727   -1.0402 H   0  0  0  0  0  0  0  0  0  0  0  0
   -0.3963    2.1731   -0.1706 H   0  0  0  0  0  0  0  0  0  0  0  0
   -2.8022    1.5817   -0.5484 H   0  0  0  0  0  0  0  0  0  0  0  0
    1.6334    0.6405   -0.3502 N   0  0  0  0  0  0  0  0  0  0  0  0
    2.5277   -0.1567   -0.4772 N   0  0  0  0  0  0  0  0  0  0  0  0
    4.2438    0.6760   -0.1096 Cl  0  0  0  0  0  0  0  0  0  0  0  0
   -3.4065   -0.7464   -1.1726 H   0  0  0  0  0  0  0  0  0  0  0  0
  1  6  2  0  0  0  0
  1  2  1  0  0  0  0
  2  3  2  0  0  0  0
  3  4  1  0  0  0  0
  3 11  1  0  0  0  0
  4  9  1  0  0  0  0
  5 10  1  0  0  0  0
  5  4  2  0  0  0  0
  6  5  1  0  0  0  0
  7  1  1  0  0  0  0
  8  2  1  0  0  0  0
 12 11  1  0  0  0  0
 12 13  1  0  0  0  0
 14  6  1  0  0  0  0
M  RAD  2  11   2  12   2
M  END
