Coordinates from ORCA-job Ph-N2-Cl-B3LYPG-6-31G_dp-scan-d09-49-n400
 OpenBabel08281820523D

 14 14  0  0  1  0  0  0  0  0999 V2000
   -1.4991   -1.0941   -1.4502 C   0  0  0  0  0  0  0  0  0  0  0  0
   -0.1524   -1.2764   -1.4386 C   0  0  0  0  0  0  0  0  0  0  0  0
    0.6609   -0.3428   -0.6910 C   0  0  1  0  0  0  0  0  0  0  0  0
    0.1256    0.9437   -0.2369 C   0  0  2  0  0  0  0  0  0  0  0  0
   -1.3253    0.9184   -0.0764 C   0  0  0  0  0  0  0  0  0  0  0  0
   -2.0888   -0.0246   -0.6870 C   0  0  0  0  0  0  0  0  0  0  0  0
   -2.1355   -1.7785   -2.0011 H   0  0  0  0  0  0  0  0  0  0  0  0
    0.3243   -2.1139   -1.9368 H   0  0  0  0  0  0  0  0  0  0  0  0
    0.6974    1.4356    0.5418 H   0  0  0  0  0  0  0  0  0  0  0  0
   -1.7778    1.7373    0.4721 H   0  0  0  0  0  0  0  0  0  0  0  0
    1.8631   -0.7700   -0.3151 N   0  0  0  0  0  0  0  0  0  0  0  0
    2.8419   -1.2583    0.0098 N   0  0  0  0  0  0  0  0  0  0  0  0
    0.3449    2.5414   -1.6490 Cl  0  0  0  0  0  0  0  0  0  0  0  0
   -3.1705    0.0221   -0.6004 H   0  0  0  0  0  0  0  0  0  0  0  0
  1  2  2  0  0  0  0
  1  6  1  0  0  0  0
  2  3  1  0  0  0  0
  3 11  1  1  0  0  0
  3  4  1  0  0  0  0
  4  5  1  0  0  0  0
  4  9  1  1  0  0  0
  5 10  1  0  0  0  0
  6 14  1  0  0  0  0
  6  5  2  0  0  0  0
  7  1  1  0  0  0  0
  8  2  1  0  0  0  0
 11 12  1  0  0  0  0
 13  4  1  0  0  0  0
M  RAD  3   3   2  11   2  12   3
M  END
