Coordinates from ORCA-job Ph-N2-Cl-B3LYPG-6-31G_dp-scan-d09-49-n400
 OpenBabel08281820523D

 14 13  0  0  0  0  0  0  0  0999 V2000
   -1.6573   -1.4543   -1.1753 C   0  0  0  0  0  0  0  0  0  0  0  0
   -0.2752   -1.5595   -1.1042 C   0  0  0  0  0  0  0  0  0  0  0  0
    0.4411   -0.4080   -0.7471 C   0  0  0  0  0  0  0  0  0  0  0  0
   -0.1426    0.8340   -0.4587 C   0  0  0  0  0  0  0  0  0  0  0  0
   -1.5321    0.8982   -0.5411 C   0  0  0  0  0  0  0  0  0  0  0  0
   -2.2798   -0.2290   -0.8945 C   0  0  0  0  0  0  0  0  0  0  0  0
   -2.2510   -2.3200   -1.4482 H   0  0  0  0  0  0  0  0  0  0  0  0
    0.2431   -2.4885   -1.3149 H   0  0  0  0  0  0  0  0  0  0  0  0
    0.4996    1.6861   -0.1869 H   0  0  0  0  0  0  0  0  0  0  0  0
   -2.0290    1.8388   -0.3262 H   0  0  0  0  0  0  0  0  0  0  0  0
    1.8356   -0.4842   -0.6688 N   0  0  0  0  0  0  0  0  0  0  0  0
    2.8839   -0.0954   -0.4934 N   0  0  0  0  0  0  0  0  0  0  0  0
    2.3344    2.8787    0.2544 Cl  0  0  0  0  0  0  0  0  0  0  0  0
   -3.3619   -0.1568   -0.9540 H   0  0  0  0  0  0  0  0  0  0  0  0
  1  2  2  0  0  0  0
  1  6  1  0  0  0  0
  2  3  1  0  0  0  0
  3 11  1  0  0  0  0
  3  4  2  0  0  0  0
  4  9  1  0  0  0  0
  5  4  1  0  0  0  0
  5 10  1  0  0  0  0
  6  5  2  0  0  0  0
  7  1  1  0  0  0  0
  8  2  1  0  0  0  0
 11 12  1  0  0  0  0
 14  6  1  0  0  0  0
M  RAD  3  11   2  12   3  13   2
M  END
