Coordinates from ORCA-job Ph-N2-Cl-B3LYPG-6-31G_dp-scan-d09-49-n400
 OpenBabel08281820523D

 14 13  0  0  0  0  0  0  0  0999 V2000
   -1.6466   -1.4558   -1.1755 C   0  0  0  0  0  0  0  0  0  0  0  0
   -0.2609   -1.5238   -1.0938 C   0  0  0  0  0  0  0  0  0  0  0  0
    0.4343   -0.3621   -0.7348 C   0  0  0  0  0  0  0  0  0  0  0  0
   -0.1917    0.8603   -0.4541 C   0  0  0  0  0  0  0  0  0  0  0  0
   -1.5811    0.8952   -0.5447 C   0  0  0  0  0  0  0  0  0  0  0  0
   -2.3019   -0.2489   -0.9016 C   0  0  0  0  0  0  0  0  0  0  0  0
   -2.2151   -2.3374   -1.4516 H   0  0  0  0  0  0  0  0  0  0  0  0
    0.2811   -2.4403   -1.2996 H   0  0  0  0  0  0  0  0  0  0  0  0
    0.4193    1.7215   -0.1811 H   0  0  0  0  0  0  0  0  0  0  0  0
   -2.1017    1.8239   -0.3343 H   0  0  0  0  0  0  0  0  0  0  0  0
    1.8353   -0.4402   -0.6565 N   0  0  0  0  0  0  0  0  0  0  0  0
    2.8418    0.0647   -0.4537 N   0  0  0  0  0  0  0  0  0  0  0  0
    2.5808    2.5848    0.1906 Cl  0  0  0  0  0  0  0  0  0  0  0  0
   -3.3849   -0.2016   -0.9682 H   0  0  0  0  0  0  0  0  0  0  0  0
  1  2  2  0  0  0  0
  1  6  1  0  0  0  0
  2  3  1  0  0  0  0
  3 11  1  0  0  0  0
  3  4  2  0  0  0  0
  4  9  1  0  0  0  0
  5  4  1  0  0  0  0
  5 10  1  0  0  0  0
  6  5  2  0  0  0  0
  7  1  1  0  0  0  0
  8  2  1  0  0  0  0
 11 12  2  0  0  0  0
 14  6  1  0  0  0  0
M  RAD  2  12   2  13   2
M  END
