Coordinates from ORCA-job Ph-N2-Cl-B3LYPG-6-31G_dp-scan-d09-49-n400
 OpenBabel08281820523D

 14 13  0  0  0  0  0  0  0  0999 V2000
   -1.6572   -1.4546   -1.1754 C   0  0  0  0  0  0  0  0  0  0  0  0
   -0.2749   -1.5584   -1.1039 C   0  0  0  0  0  0  0  0  0  0  0  0
    0.4406   -0.4065   -0.7467 C   0  0  0  0  0  0  0  0  0  0  0  0
   -0.1444    0.8347   -0.4586 C   0  0  0  0  0  0  0  0  0  0  0  0
   -1.5340    0.8978   -0.5413 C   0  0  0  0  0  0  0  0  0  0  0  0
   -2.2808   -0.2299   -0.8948 C   0  0  0  0  0  0  0  0  0  0  0  0
   -2.2500   -2.3209   -1.4485 H   0  0  0  0  0  0  0  0  0  0  0  0
    0.2443   -2.4869   -1.3144 H   0  0  0  0  0  0  0  0  0  0  0  0
    0.4965    1.6871   -0.1868 H   0  0  0  0  0  0  0  0  0  0  0  0
   -2.0317    1.8380   -0.3266 H   0  0  0  0  0  0  0  0  0  0  0  0
    1.8355   -0.4829   -0.6684 N   0  0  0  0  0  0  0  0  0  0  0  0
    2.8816   -0.0878   -0.4915 N   0  0  0  0  0  0  0  0  0  0  0  0
    2.3462    2.8689    0.2525 Cl  0  0  0  0  0  0  0  0  0  0  0  0
   -3.3630   -0.1586   -0.9546 H   0  0  0  0  0  0  0  0  0  0  0  0
  1  2  2  0  0  0  0
  1  6  1  0  0  0  0
  2  3  1  0  0  0  0
  3 11  1  0  0  0  0
  3  4  2  0  0  0  0
  4  9  1  0  0  0  0
  5  4  1  0  0  0  0
  5 10  1  0  0  0  0
  6  5  2  0  0  0  0
  7  1  1  0  0  0  0
  8  2  1  0  0  0  0
 11 12  1  0  0  0  0
 14  6  1  0  0  0  0
M  RAD  3  11   2  12   3  13   2
M  END
