Coordinates from ORCA-job Ph-N2-Cl-B3LYPG-6-31G_dp-scan-d09-49-n400
 OpenBabel08281820523D

 14 14  0  0  0  0  0  0  0  0999 V2000
   -1.3252   -1.4446   -1.1377 C   0  0  0  0  0  0  0  0  0  0  0  0
    0.0028   -1.0935   -0.9254 C   0  0  0  0  0  0  0  0  0  0  0  0
    0.3171    0.2309   -0.5755 C   0  0  0  0  0  0  0  0  0  0  0  0
   -0.6991    1.1851   -0.4413 C   0  0  0  0  0  0  0  0  0  0  0  0
   -2.0284    0.8237   -0.6565 C   0  0  0  0  0  0  0  0  0  0  0  0
   -2.3423   -0.4904   -1.0052 C   0  0  0  0  0  0  0  0  0  0  0  0
   -1.5744   -2.4661   -1.4097 H   0  0  0  0  0  0  0  0  0  0  0  0
    0.7996   -1.8214   -1.0255 H   0  0  0  0  0  0  0  0  0  0  0  0
   -0.4217    2.1979   -0.1683 H   0  0  0  0  0  0  0  0  0  0  0  0
   -2.8148    1.5649   -0.5521 H   0  0  0  0  0  0  0  0  0  0  0  0
    1.6295    0.7227   -0.3335 N   0  0  0  0  0  0  0  0  0  0  0  0
    2.5302   -0.1324   -0.4646 N   0  0  0  0  0  0  0  0  0  0  0  0
    4.0118    0.4387   -0.1881 Cl  0  0  0  0  0  0  0  0  0  0  0  0
   -3.3764   -0.7756   -1.1754 H   0  0  0  0  0  0  0  0  0  0  0  0
  1  6  2  0  0  0  0
  1  2  1  0  0  0  0
  2  3  2  0  0  0  0
  3  4  1  0  0  0  0
  3 11  1  0  0  0  0
  4  9  1  0  0  0  0
  5 10  1  0  0  0  0
  5  4  2  0  0  0  0
  6  5  1  0  0  0  0
  7  1  1  0  0  0  0
  8  2  1  0  0  0  0
 12 11  1  0  0  0  0
 12 13  1  0  0  0  0
 14  6  1  0  0  0  0
M  RAD  2  11   2  12   2
M  END
