Coordinates from ORCA-job Ph-N2-Cl-B3LYPG-6-31G_dp-scan-d09-49-n400
 OpenBabel08281820523D

 14 14  0  0  0  0  0  0  0  0999 V2000
   -1.3492   -1.4505   -1.1411 C   0  0  0  0  0  0  0  0  0  0  0  0
   -0.0172   -1.1131   -0.9305 C   0  0  0  0  0  0  0  0  0  0  0  0
    0.3053    0.2080   -0.5805 C   0  0  0  0  0  0  0  0  0  0  0  0
   -0.6962    1.1748   -0.4424 C   0  0  0  0  0  0  0  0  0  0  0  0
   -2.0290    0.8256   -0.6568 C   0  0  0  0  0  0  0  0  0  0  0  0
   -2.3552   -0.4854   -1.0062 C   0  0  0  0  0  0  0  0  0  0  0  0
   -1.6091   -2.4691   -1.4133 H   0  0  0  0  0  0  0  0  0  0  0  0
    0.7716   -1.8498   -1.0324 H   0  0  0  0  0  0  0  0  0  0  0  0
   -0.4080    2.1842   -0.1688 H   0  0  0  0  0  0  0  0  0  0  0  0
   -2.8082    1.5739   -0.5508 H   0  0  0  0  0  0  0  0  0  0  0  0
    1.6319    0.6823   -0.3401 N   0  0  0  0  0  0  0  0  0  0  0  0
    2.5214   -0.1478   -0.4742 N   0  0  0  0  0  0  0  0  0  0  0  0
    4.1431    0.5670   -0.1466 Cl  0  0  0  0  0  0  0  0  0  0  0  0
   -3.3923   -0.7600   -1.1751 H   0  0  0  0  0  0  0  0  0  0  0  0
  1  6  2  0  0  0  0
  1  2  1  0  0  0  0
  2  3  2  0  0  0  0
  3  4  1  0  0  0  0
  3 11  1  0  0  0  0
  4  9  1  0  0  0  0
  5 10  1  0  0  0  0
  5  4  2  0  0  0  0
  6  5  1  0  0  0  0
  7  1  1  0  0  0  0
  8  2  1  0  0  0  0
 12 11  1  0  0  0  0
 12 13  1  0  0  0  0
 14  6  1  0  0  0  0
M  RAD  2  11   2  12   2
M  END
