Coordinates from ORCA-job Ph-N2-Cl-B3LYPG-6-31G_dp-scan-d09-49-n400
 OpenBabel08281820523D

 14 13  0  0  0  0  0  0  0  0999 V2000
   -1.4793   -1.4775   -1.1599 C   0  0  0  0  0  0  0  0  0  0  0  0
   -0.1240   -1.2305   -0.9725 C   0  0  0  0  0  0  0  0  0  0  0  0
    0.2707    0.0688   -0.6221 C   0  0  0  0  0  0  0  0  0  0  0  0
   -0.6460    1.1091   -0.4572 C   0  0  0  0  0  0  0  0  0  0  0  0
   -1.9998    0.8410   -0.6492 C   0  0  0  0  0  0  0  0  0  0  0  0
   -2.4131   -0.4467   -0.9993 C   0  0  0  0  0  0  0  0  0  0  0  0
   -1.8099   -2.4745   -1.4327 H   0  0  0  0  0  0  0  0  0  0  0  0
    0.6193   -2.0114   -1.0913 H   0  0  0  0  0  0  0  0  0  0  0  0
   -0.2890    2.0960   -0.1846 H   0  0  0  0  0  0  0  0  0  0  0  0
   -2.7287    1.6349   -0.5257 H   0  0  0  0  0  0  0  0  0  0  0  0
    1.6406    0.3791   -0.4196 N   0  0  0  0  0  0  0  0  0  0  0  0
    2.6391   -0.2035   -0.4654 N   0  0  0  0  0  0  0  0  0  0  0  0
    4.4975    1.3068    0.0703 Cl  0  0  0  0  0  0  0  0  0  0  0  0
   -3.4687   -0.6515   -1.1497 H   0  0  0  0  0  0  0  0  0  0  0  0
  1  6  2  0  0  0  0
  1  2  1  0  0  0  0
  2  3  2  0  0  0  0
  3  4  1  0  0  0  0
  3 11  1  0  0  0  0
  4  9  1  0  0  0  0
  5 10  1  0  0  0  0
  5  4  2  0  0  0  0
  6  5  1  0  0  0  0
  7  1  1  0  0  0  0
  8  2  1  0  0  0  0
 12 11  2  0  0  0  0
 14  6  1  0  0  0  0
M  RAD  2  12   2  13   2
M  END
