Coordinates from ORCA-job Ph-N2-Cl-B3LYPG-6-31G_dp-scan-d09-49-n400
 OpenBabel08281820523D

 14 13  0  0  0  0  0  0  0  0999 V2000
   -1.6545   -1.4488   -1.1732 C   0  0  0  0  0  0  0  0  0  0  0  0
   -0.2758   -1.5699   -1.1069 C   0  0  0  0  0  0  0  0  0  0  0  0
    0.4505   -0.4198   -0.7501 C   0  0  0  0  0  0  0  0  0  0  0  0
   -0.1170    0.8312   -0.4585 C   0  0  0  0  0  0  0  0  0  0  0  0
   -1.5070    0.9048   -0.5381 C   0  0  0  0  0  0  0  0  0  0  0  0
   -2.2644   -0.2151   -0.8896 C   0  0  0  0  0  0  0  0  0  0  0  0
   -2.2587   -2.3077   -1.4445 H   0  0  0  0  0  0  0  0  0  0  0  0
    0.2321   -2.5041   -1.3195 H   0  0  0  0  0  0  0  0  0  0  0  0
    0.5367    1.6858   -0.1855 H   0  0  0  0  0  0  0  0  0  0  0  0
   -1.9938    1.8503   -0.3214 H   0  0  0  0  0  0  0  0  0  0  0  0
    1.8348   -0.4969   -0.6728 N   0  0  0  0  0  0  0  0  0  0  0  0
    2.9217   -0.2427   -0.5301 N   0  0  0  0  0  0  0  0  0  0  0  0
    2.1504    3.0070    0.2780 Cl  0  0  0  0  0  0  0  0  0  0  0  0
   -3.3462   -0.1341   -0.9465 H   0  0  0  0  0  0  0  0  0  0  0  0
  1  2  2  0  0  0  0
  1  6  1  0  0  0  0
  2  3  1  0  0  0  0
  3 11  1  0  0  0  0
  3  4  2  0  0  0  0
  4  9  1  0  0  0  0
  5  4  1  0  0  0  0
  5 10  1  0  0  0  0
  6  5  2  0  0  0  0
  7  1  1  0  0  0  0
  8  2  1  0  0  0  0
 11 12  1  0  0  0  0
 14  6  1  0  0  0  0
M  RAD  3  11   2  12   3  13   2
M  END
