Coordinates from ORCA-job Ph-N2-Cl-B3LYPG-6-31G_dp-scan-d09-49-n400
 OpenBabel08281820523D

 14 13  0  0  0  0  0  0  0  0999 V2000
   -1.5542   -1.4154   -1.1585 C   0  0  0  0  0  0  0  0  0  0  0  0
   -0.1707   -1.4168   -1.0596 C   0  0  0  0  0  0  0  0  0  0  0  0
    0.4575   -0.2114   -0.6943 C   0  0  0  0  0  0  0  0  0  0  0  0
   -0.2280    0.9663   -0.4305 C   0  0  0  0  0  0  0  0  0  0  0  0
   -1.6191    0.9349   -0.5387 C   0  0  0  0  0  0  0  0  0  0  0  0
   -2.2771   -0.2419   -0.8988 C   0  0  0  0  0  0  0  0  0  0  0  0
   -2.0702   -2.3280   -1.4387 H   0  0  0  0  0  0  0  0  0  0  0  0
    0.4165   -2.3077   -1.2550 H   0  0  0  0  0  0  0  0  0  0  0  0
    0.3526    1.8552   -0.1528 H   0  0  0  0  0  0  0  0  0  0  0  0
   -2.1844    1.8390   -0.3387 H   0  0  0  0  0  0  0  0  0  0  0  0
    1.8882   -0.2671   -0.6068 N   0  0  0  0  0  0  0  0  0  0  0  0
    2.7744   -0.9653   -0.7289 N   0  0  0  0  0  0  0  0  0  0  0  0
    2.2833    2.7509    0.2227 Cl  0  0  0  0  0  0  0  0  0  0  0  0
   -3.3600   -0.2527   -0.9805 H   0  0  0  0  0  0  0  0  0  0  0  0
  1  2  2  0  0  0  0
  1  6  1  0  0  0  0
  2  3  1  0  0  0  0
  3 11  1  0  0  0  0
  3  4  2  0  0  0  0
  4  9  1  0  0  0  0
  5  4  1  0  0  0  0
  5 10  1  0  0  0  0
  6  5  2  0  0  0  0
  7  1  1  0  0  0  0
  8  2  1  0  0  0  0
 12 11  2  0  0  0  0
 14  6  1  0  0  0  0
M  RAD  2  12   2  13   2
M  END
