Coordinates from ORCA-job Ph-N2-Cl-B3LYPG-6-31G_dp-scan-d09-49-n400
 OpenBabel08281820523D

 14 13  0  0  0  0  0  0  0  0999 V2000
   -1.5565   -1.4160   -1.1588 C   0  0  0  0  0  0  0  0  0  0  0  0
   -0.1731   -1.4214   -1.0609 C   0  0  0  0  0  0  0  0  0  0  0  0
    0.4582   -0.2173   -0.6957 C   0  0  0  0  0  0  0  0  0  0  0  0
   -0.2235    0.9624   -0.4312 C   0  0  0  0  0  0  0  0  0  0  0  0
   -1.6147    0.9348   -0.5384 C   0  0  0  0  0  0  0  0  0  0  0  0
   -2.2760   -0.2402   -0.8982 C   0  0  0  0  0  0  0  0  0  0  0  0
   -2.0754   -2.3270   -1.4388 H   0  0  0  0  0  0  0  0  0  0  0  0
    0.4117   -2.3137   -1.2569 H   0  0  0  0  0  0  0  0  0  0  0  0
    0.3608    1.8498   -0.1537 H   0  0  0  0  0  0  0  0  0  0  0  0
   -2.1774    1.8405   -0.3378 H   0  0  0  0  0  0  0  0  0  0  0  0
    1.8875   -0.2756   -0.6091 N   0  0  0  0  0  0  0  0  0  0  0  0
    2.7797   -0.9657   -0.7287 N   0  0  0  0  0  0  0  0  0  0  0  0
    2.2664    2.7773    0.2287 Cl  0  0  0  0  0  0  0  0  0  0  0  0
   -3.3590   -0.2481   -0.9792 H   0  0  0  0  0  0  0  0  0  0  0  0
  1  2  2  0  0  0  0
  1  6  1  0  0  0  0
  2  3  1  0  0  0  0
  3 11  1  0  0  0  0
  3  4  2  0  0  0  0
  4  9  1  0  0  0  0
  5  4  1  0  0  0  0
  5 10  1  0  0  0  0
  6  5  2  0  0  0  0
  7  1  1  0  0  0  0
  8  2  1  0  0  0  0
 12 11  2  0  0  0  0
 14  6  1  0  0  0  0
M  RAD  2  12   2  13   2
M  END
