Coordinates from ORCA-job Ph-N2-Cl-B3LYPG-6-31G_dp-scan-d09-49-n400
 OpenBabel08281820523D

 14 13  0  0  0  0  0  0  0  0999 V2000
   -1.5359   -1.4097   -1.1561 C   0  0  0  0  0  0  0  0  0  0  0  0
   -0.1523   -1.3807   -1.0492 C   0  0  0  0  0  0  0  0  0  0  0  0
    0.4513   -0.1654   -0.6825 C   0  0  0  0  0  0  0  0  0  0  0  0
   -0.2637    0.9955   -0.4248 C   0  0  0  0  0  0  0  0  0  0  0  0
   -1.6534    0.9367   -0.5403 C   0  0  0  0  0  0  0  0  0  0  0  0
   -2.2858   -0.2534   -0.9024 C   0  0  0  0  0  0  0  0  0  0  0  0
   -2.0298   -2.3340   -1.4382 H   0  0  0  0  0  0  0  0  0  0  0  0
    0.4531   -2.2600   -1.2404 H   0  0  0  0  0  0  0  0  0  0  0  0
    0.2907    1.8928   -0.1462 H   0  0  0  0  0  0  0  0  0  0  0  0
   -2.2380    1.8294   -0.3443 H   0  0  0  0  0  0  0  0  0  0  0  0
    1.8914   -0.1934   -0.5864 N   0  0  0  0  0  0  0  0  0  0  0  0
    2.7433   -0.9350   -0.7213 N   0  0  0  0  0  0  0  0  0  0  0  0
    2.4053    2.5037    0.1631 Cl  0  0  0  0  0  0  0  0  0  0  0  0
   -3.3677   -0.2865   -0.9900 H   0  0  0  0  0  0  0  0  0  0  0  0
  1  2  2  0  0  0  0
  1  6  1  0  0  0  0
  2  3  1  0  0  0  0
  3 11  1  0  0  0  0
  3  4  2  0  0  0  0
  4  9  1  0  0  0  0
  5  4  1  0  0  0  0
  5 10  1  0  0  0  0
  6  5  2  0  0  0  0
  7  1  1  0  0  0  0
  8  2  1  0  0  0  0
 12 11  2  0  0  0  0
 14  6  1  0  0  0  0
M  RAD  2  12   2  13   2
M  END
