Coordinates from ORCA-job Ph-N2-Cl-B3LYPG-6-31G_dp-scan-d09-49-n400
 OpenBabel08281820523D

 14 13  0  0  0  0  0  0  0  0999 V2000
   -1.6525   -1.4564   -1.1759 C   0  0  0  0  0  0  0  0  0  0  0  0
   -0.2680   -1.5404   -1.0986 C   0  0  0  0  0  0  0  0  0  0  0  0
    0.4354   -0.3831   -0.7404 C   0  0  0  0  0  0  0  0  0  0  0  0
   -0.1719    0.8477   -0.4563 C   0  0  0  0  0  0  0  0  0  0  0  0
   -1.5615    0.8955   -0.5434 C   0  0  0  0  0  0  0  0  0  0  0  0
   -2.2937   -0.2416   -0.8990 C   0  0  0  0  0  0  0  0  0  0  0  0
   -2.2318   -2.3312   -1.4508 H   0  0  0  0  0  0  0  0  0  0  0  0
    0.2640   -2.4623   -1.3066 H   0  0  0  0  0  0  0  0  0  0  0  0
    0.4540    1.7033   -0.1843 H   0  0  0  0  0  0  0  0  0  0  0  0
   -2.0721    1.8292   -0.3311 H   0  0  0  0  0  0  0  0  0  0  0  0
    1.8347   -0.4578   -0.6614 N   0  0  0  0  0  0  0  0  0  0  0  0
    2.8553    0.0077   -0.4679 N   0  0  0  0  0  0  0  0  0  0  0  0
    2.4934    2.7131    0.2195 Cl  0  0  0  0  0  0  0  0  0  0  0  0
   -3.3764   -0.1837   -0.9626 H   0  0  0  0  0  0  0  0  0  0  0  0
  1  2  2  0  0  0  0
  1  6  1  0  0  0  0
  2  3  1  0  0  0  0
  3 11  1  0  0  0  0
  3  4  2  0  0  0  0
  4  9  1  0  0  0  0
  5  4  1  0  0  0  0
  5 10  1  0  0  0  0
  6  5  2  0  0  0  0
  7  1  1  0  0  0  0
  8  2  1  0  0  0  0
 11 12  2  0  0  0  0
 14  6  1  0  0  0  0
M  RAD  2  12   2  13   2
M  END
