Coordinates from ORCA-job Ph-N2-Cl-B3LYPG-6-31G_dp-scan-d09-49-n400
 OpenBabel08281820523D

 14 14  0  0  0  0  0  0  0  0999 V2000
   -1.4116   -1.4644   -1.1500 C   0  0  0  0  0  0  0  0  0  0  0  0
   -0.0688   -1.1639   -0.9501 C   0  0  0  0  0  0  0  0  0  0  0  0
    0.2795    0.1485   -0.6007 C   0  0  0  0  0  0  0  0  0  0  0  0
   -0.6833    1.1486   -0.4499 C   0  0  0  0  0  0  0  0  0  0  0  0
   -2.0254    0.8315   -0.6544 C   0  0  0  0  0  0  0  0  0  0  0  0
   -2.3874   -0.4709   -1.0035 C   0  0  0  0  0  0  0  0  0  0  0  0
   -1.7010   -2.4746   -1.4219 H   0  0  0  0  0  0  0  0  0  0  0  0
    0.7023   -1.9188   -1.0593 H   0  0  0  0  0  0  0  0  0  0  0  0
   -0.3664    2.1491   -0.1769 H   0  0  0  0  0  0  0  0  0  0  0  0
   -2.7843    1.5987   -0.5408 H   0  0  0  0  0  0  0  0  0  0  0  0
    1.6356    0.5486   -0.3766 N   0  0  0  0  0  0  0  0  0  0  0  0
    2.5626   -0.1736   -0.4749 N   0  0  0  0  0  0  0  0  0  0  0  0
    4.3898    0.8980   -0.0361 Cl  0  0  0  0  0  0  0  0  0  0  0  0
   -3.4329   -0.7167   -1.1637 H   0  0  0  0  0  0  0  0  0  0  0  0
  1  6  2  0  0  0  0
  1  2  1  0  0  0  0
  2  3  2  0  0  0  0
  3  4  1  0  0  0  0
  3 11  1  0  0  0  0
  4  9  1  0  0  0  0
  5 10  1  0  0  0  0
  5  4  2  0  0  0  0
  6  5  1  0  0  0  0
  7  1  1  0  0  0  0
  8  2  1  0  0  0  0
 12 11  1  0  0  0  0
 12 13  1  0  0  0  0
 14  6  1  0  0  0  0
M  RAD  2  11   2  12   2
M  END
