Coordinates from ORCA-job Ph-N2-Cl-B3LYPG-6-31G_dp-scan-d09-49-n400
 OpenBabel08281820523D

 14 14  0  0  1  0  0  0  0  0999 V2000
   -1.4984   -1.0940   -1.4503 C   0  0  0  0  0  0  0  0  0  0  0  0
   -0.1516   -1.2758   -1.4394 C   0  0  0  0  0  0  0  0  0  0  0  0
    0.6617   -0.3422   -0.6917 C   0  0  1  0  0  0  0  0  0  0  0  0
    0.1260    0.9441   -0.2375 C   0  0  2  0  0  0  0  0  0  0  0  0
   -1.3245    0.9182   -0.0760 C   0  0  0  0  0  0  0  0  0  0  0  0
   -2.0881   -0.0251   -0.6863 C   0  0  0  0  0  0  0  0  0  0  0  0
   -2.1348   -1.7782   -2.0014 H   0  0  0  0  0  0  0  0  0  0  0  0
    0.3251   -2.1129   -1.9381 H   0  0  0  0  0  0  0  0  0  0  0  0
    0.6985    1.4373    0.5397 H   0  0  0  0  0  0  0  0  0  0  0  0
   -1.7769    1.7370    0.4726 H   0  0  0  0  0  0  0  0  0  0  0  0
    1.8626   -0.7716   -0.3135 N   0  0  0  0  0  0  0  0  0  0  0  0
    2.8391   -1.2633    0.0131 N   0  0  0  0  0  0  0  0  0  0  0  0
    0.3398    2.5453   -1.6510 Cl  0  0  0  0  0  0  0  0  0  0  0  0
   -3.1698    0.0212   -0.5990 H   0  0  0  0  0  0  0  0  0  0  0  0
  1  2  2  0  0  0  0
  1  6  1  0  0  0  0
  2  3  1  0  0  0  0
  3 11  1  1  0  0  0
  3  4  1  0  0  0  0
  4  5  1  0  0  0  0
  4  9  1  1  0  0  0
  5 10  1  0  0  0  0
  6 14  1  0  0  0  0
  6  5  2  0  0  0  0
  7  1  1  0  0  0  0
  8  2  1  0  0  0  0
 11 12  1  0  0  0  0
 13  4  1  0  0  0  0
M  RAD  3   3   2  11   2  12   3
M  END
