Coordinates from ORCA-job Ph-N2-Cl-B3LYPG-6-31G_dp-scan-d09-49-n400
 OpenBabel08281820523D

 14 14  0  0  0  0  0  0  0  0999 V2000
   -1.3655   -1.4544   -1.1435 C   0  0  0  0  0  0  0  0  0  0  0  0
   -0.0307   -1.1259   -0.9349 C   0  0  0  0  0  0  0  0  0  0  0  0
    0.2970    0.1930   -0.5849 C   0  0  0  0  0  0  0  0  0  0  0  0
   -0.6943    1.1685   -0.4439 C   0  0  0  0  0  0  0  0  0  0  0  0
   -2.0294    0.8269   -0.6566 C   0  0  0  0  0  0  0  0  0  0  0  0
   -2.3641   -0.4821   -1.0061 C   0  0  0  0  0  0  0  0  0  0  0  0
   -1.6325   -2.4709   -1.4157 H   0  0  0  0  0  0  0  0  0  0  0  0
    0.7535   -1.8675   -1.0383 H   0  0  0  0  0  0  0  0  0  0  0  0
   -0.3991    2.1757   -0.1701 H   0  0  0  0  0  0  0  0  0  0  0  0
   -2.8037    1.5798   -0.5491 H   0  0  0  0  0  0  0  0  0  0  0  0
    1.6331    0.6505   -0.3476 N   0  0  0  0  0  0  0  0  0  0  0  0
    2.5252   -0.1549   -0.4765 N   0  0  0  0  0  0  0  0  0  0  0  0
    4.2223    0.6509   -0.1183 Cl  0  0  0  0  0  0  0  0  0  0  0  0
   -3.4032   -0.7496   -1.1734 H   0  0  0  0  0  0  0  0  0  0  0  0
  1  6  2  0  0  0  0
  1  2  1  0  0  0  0
  2  3  2  0  0  0  0
  3  4  1  0  0  0  0
  3 11  1  0  0  0  0
  4  9  1  0  0  0  0
  5 10  1  0  0  0  0
  5  4  2  0  0  0  0
  6  5  1  0  0  0  0
  7  1  1  0  0  0  0
  8  2  1  0  0  0  0
 12 11  1  0  0  0  0
 12 13  1  0  0  0  0
 14  6  1  0  0  0  0
M  RAD  2  11   2  12   2
M  END
