Coordinates from ORCA-job Ph-N2-Cl-B3LYPG-6-31G_dp-scan-d09-49-n400
 OpenBabel08281820513D

 14 14  0  0  0  0  0  0  0  0999 V2000
   -1.2878   -1.4342   -1.1318 C   0  0  0  0  0  0  0  0  0  0  0  0
    0.0335   -1.0600   -0.9151 C   0  0  0  0  0  0  0  0  0  0  0  0
    0.3330    0.2694   -0.5655 C   0  0  0  0  0  0  0  0  0  0  0  0
   -0.7067    1.2028   -0.4381 C   0  0  0  0  0  0  0  0  0  0  0  0
   -2.0286    0.8197   -0.6574 C   0  0  0  0  0  0  0  0  0  0  0  0
   -2.3230   -0.4995   -1.0052 C   0  0  0  0  0  0  0  0  0  0  0  0
   -1.5173   -2.4609   -1.4032 H   0  0  0  0  0  0  0  0  0  0  0  0
    0.8423   -1.7749   -1.0114 H   0  0  0  0  0  0  0  0  0  0  0  0
   -0.4501    2.2215   -0.1657 H   0  0  0  0  0  0  0  0  0  0  0  0
   -2.8268    1.5492   -0.5566 H   0  0  0  0  0  0  0  0  0  0  0  0
    1.6252    0.7797   -0.3201 N   0  0  0  0  0  0  0  0  0  0  0  0
    2.5671   -0.0829   -0.4482 N   0  0  0  0  0  0  0  0  0  0  0  0
    3.7996    0.2122   -0.2618 Cl  0  0  0  0  0  0  0  0  0  0  0  0
   -3.3517   -0.8020   -1.1786 H   0  0  0  0  0  0  0  0  0  0  0  0
  1  6  2  0  0  0  0
  1  2  1  0  0  0  0
  2  3  2  0  0  0  0
  3  4  1  0  0  0  0
  3 11  1  0  0  0  0
  4  9  1  0  0  0  0
  5 10  1  0  0  0  0
  5  4  2  0  0  0  0
  6  5  1  0  0  0  0
  7  1  1  0  0  0  0
  8  2  1  0  0  0  0
 12 11  1  0  0  0  0
 12 13  1  0  0  0  0
 14  6  1  0  0  0  0
M  RAD  2  11   2  12   2
M  END
