Coordinates from ORCA-job Ph-N2-Cl-B3LYPG-6-31G_dp-scan-d09-49-n400
 OpenBabel08281820523D

 14 13  0  0  0  0  0  0  0  0999 V2000
   -1.5817   -1.4187   -1.1607 C   0  0  0  0  0  0  0  0  0  0  0  0
   -0.2003   -1.4744   -1.0763 C   0  0  0  0  0  0  0  0  0  0  0  0
    0.4762   -0.2899   -0.7141 C   0  0  0  0  0  0  0  0  0  0  0  0
   -0.1591    0.9178   -0.4394 C   0  0  0  0  0  0  0  0  0  0  0  0
   -1.5512    0.9344   -0.5346 C   0  0  0  0  0  0  0  0  0  0  0  0
   -2.2554   -0.2164   -0.8905 C   0  0  0  0  0  0  0  0  0  0  0  0
   -2.1365   -2.3093   -1.4370 H   0  0  0  0  0  0  0  0  0  0  0  0
    0.3516   -2.3861   -1.2793 H   0  0  0  0  0  0  0  0  0  0  0  0
    0.4525    1.7999   -0.1616 H   0  0  0  0  0  0  0  0  0  0  0  0
   -2.0790    1.8593   -0.3268 H   0  0  0  0  0  0  0  0  0  0  0  0
    1.8851   -0.3995   -0.6435 N   0  0  0  0  0  0  0  0  0  0  0  0
    2.8386   -0.9996   -0.7357 N   0  0  0  0  0  0  0  0  0  0  0  0
    2.0068    3.1091    0.3021 Cl  0  0  0  0  0  0  0  0  0  0  0  0
   -3.3388   -0.1865   -0.9615 H   0  0  0  0  0  0  0  0  0  0  0  0
  1  2  2  0  0  0  0
  1  6  1  0  0  0  0
  2  3  1  0  0  0  0
  3 11  1  0  0  0  0
  3  4  2  0  0  0  0
  4  9  1  0  0  0  0
  5  4  1  0  0  0  0
  5 10  1  0  0  0  0
  6  5  2  0  0  0  0
  7  1  1  0  0  0  0
  8  2  1  0  0  0  0
 12 11  2  0  0  0  0
 14  6  1  0  0  0  0
M  RAD  2  12   2  13   2
M  END
