Coordinates from ORCA-job Ph-N2-Cl-B3LYPG-6-31G_dp-scan-d09-49-n400
 OpenBabel08281820523D

 14 14  0  0  0  0  0  0  0  0999 V2000
   -1.3671   -1.4547   -1.1437 C   0  0  0  0  0  0  0  0  0  0  0  0
   -0.0321   -1.1272   -0.9353 C   0  0  0  0  0  0  0  0  0  0  0  0
    0.2963    0.1915   -0.5854 C   0  0  0  0  0  0  0  0  0  0  0  0
   -0.6941    1.1678   -0.4440 C   0  0  0  0  0  0  0  0  0  0  0  0
   -2.0294    0.8270   -0.6565 C   0  0  0  0  0  0  0  0  0  0  0  0
   -2.3649   -0.4818   -1.0061 C   0  0  0  0  0  0  0  0  0  0  0  0
   -1.6348   -2.4711   -1.4159 H   0  0  0  0  0  0  0  0  0  0  0  0
    0.7517   -1.8692   -1.0389 H   0  0  0  0  0  0  0  0  0  0  0  0
   -0.3982    2.1748   -0.1703 H   0  0  0  0  0  0  0  0  0  0  0  0
   -2.8032    1.5804   -0.5489 H   0  0  0  0  0  0  0  0  0  0  0  0
    1.6332    0.6473   -0.3484 N   0  0  0  0  0  0  0  0  0  0  0  0
    2.5260   -0.1555   -0.4768 N   0  0  0  0  0  0  0  0  0  0  0  0
    4.2295    0.6592   -0.1154 Cl  0  0  0  0  0  0  0  0  0  0  0  0
   -3.4043   -0.7486   -1.1731 H   0  0  0  0  0  0  0  0  0  0  0  0
  1  6  2  0  0  0  0
  1  2  1  0  0  0  0
  2  3  2  0  0  0  0
  3  4  1  0  0  0  0
  3 11  1  0  0  0  0
  4  9  1  0  0  0  0
  5 10  1  0  0  0  0
  5  4  2  0  0  0  0
  6  5  1  0  0  0  0
  7  1  1  0  0  0  0
  8  2  1  0  0  0  0
 12 11  1  0  0  0  0
 12 13  1  0  0  0  0
 14  6  1  0  0  0  0
M  RAD  2  11   2  12   2
M  END
