Coordinates from ORCA-job Ph-N2-Cl-B3LYPG-6-31G_dp-scan-d09-49-n400
 OpenBabel08281820523D

 14 14  0  0  1  0  0  0  0  0999 V2000
   -1.4978   -1.0938   -1.4503 C   0  0  0  0  0  0  0  0  0  0  0  0
   -0.1509   -1.2753   -1.4402 C   0  0  0  0  0  0  0  0  0  0  0  0
    0.6624   -0.3417   -0.6923 C   0  0  1  0  0  0  0  0  0  0  0  0
    0.1265    0.9441   -0.2379 C   0  0  2  0  0  0  0  0  0  0  0  0
   -1.3237    0.9179   -0.0757 C   0  0  0  0  0  0  0  0  0  0  0  0
   -2.0875   -0.0255   -0.6857 C   0  0  0  0  0  0  0  0  0  0  0  0
   -2.1342   -1.7780   -2.0016 H   0  0  0  0  0  0  0  0  0  0  0  0
    0.3258   -2.1122   -1.9393 H   0  0  0  0  0  0  0  0  0  0  0  0
    0.6997    1.4390    0.5377 H   0  0  0  0  0  0  0  0  0  0  0  0
   -1.7760    1.7367    0.4730 H   0  0  0  0  0  0  0  0  0  0  0  0
    1.8622   -0.7731   -0.3120 N   0  0  0  0  0  0  0  0  0  0  0  0
    2.8365   -1.2680    0.0162 N   0  0  0  0  0  0  0  0  0  0  0  0
    0.3347    2.5495   -1.6530 Cl  0  0  0  0  0  0  0  0  0  0  0  0
   -3.1691    0.0204   -0.5979 H   0  0  0  0  0  0  0  0  0  0  0  0
  1  2  2  0  0  0  0
  1  6  1  0  0  0  0
  2  3  1  0  0  0  0
  3 11  1  1  0  0  0
  3  4  1  0  0  0  0
  4  5  1  0  0  0  0
  4  9  1  1  0  0  0
  5 10  1  0  0  0  0
  6 14  1  0  0  0  0
  6  5  2  0  0  0  0
  7  1  1  0  0  0  0
  8  2  1  0  0  0  0
 11 12  1  0  0  0  0
 13  4  1  0  0  0  0
M  RAD  3   3   2  11   2  12   3
M  END
