Coordinates from ORCA-job Ph-N2-Cl-B3LYPG-6-31G_dp-scan-d09-49-n400
 OpenBabel08281820523D

 14 13  0  0  0  0  0  0  0  0999 V2000
   -1.6322   -1.4177   -1.1660 C   0  0  0  0  0  0  0  0  0  0  0  0
   -0.2623   -1.5761   -1.1093 C   0  0  0  0  0  0  0  0  0  0  0  0
    0.5049   -0.4378   -0.7497 C   0  0  0  0  0  0  0  0  0  0  0  0
   -0.0386    0.8274   -0.4505 C   0  0  0  0  0  0  0  0  0  0  0  0
   -1.4279    0.9290   -0.5245 C   0  0  0  0  0  0  0  0  0  0  0  0
   -2.2146   -0.1673   -0.8745 C   0  0  0  0  0  0  0  0  0  0  0  0
   -2.2577   -2.2615   -1.4369 H   0  0  0  0  0  0  0  0  0  0  0  0
    0.2176   -2.5235   -1.3292 H   0  0  0  0  0  0  0  0  0  0  0  0
    0.5974    1.7030   -0.1716 H   0  0  0  0  0  0  0  0  0  0  0  0
   -1.8789    1.8904   -0.3004 H   0  0  0  0  0  0  0  0  0  0  0  0
    1.8646   -0.5949   -0.6936 N   0  0  0  0  0  0  0  0  0  0  0  0
    2.9718   -0.7767   -0.6639 N   0  0  0  0  0  0  0  0  0  0  0  0
    1.5590    3.4083    0.3370 Cl  0  0  0  0  0  0  0  0  0  0  0  0
   -3.2945   -0.0626   -0.9257 H   0  0  0  0  0  0  0  0  0  0  0  0
  1  2  2  0  0  0  0
  1  6  1  0  0  0  0
  2  3  1  0  0  0  0
  3 11  1  0  0  0  0
  3  4  2  0  0  0  0
  4  9  1  0  0  0  0
  5  4  1  0  0  0  0
  5 10  1  0  0  0  0
  6  5  2  0  0  0  0
  7  1  1  0  0  0  0
  8  2  1  0  0  0  0
 11 12  1  0  0  0  0
 14  6  1  0  0  0  0
M  RAD  3  11   2  12   3  13   2
M  END
