Coordinates from ORCA-job Ph-N2-Cl-B3LYPG-6-31G_dp-scan-d09-49-n400
 OpenBabel08281820523D

 14 14  0  0  0  0  0  0  0  0999 V2000
   -1.3608   -1.4533   -1.1428 C   0  0  0  0  0  0  0  0  0  0  0  0
   -0.0268   -1.1222   -0.9335 C   0  0  0  0  0  0  0  0  0  0  0  0
    0.2993    0.1973   -0.5835 C   0  0  0  0  0  0  0  0  0  0  0  0
   -0.6950    1.1703   -0.4434 C   0  0  0  0  0  0  0  0  0  0  0  0
   -2.0293    0.8265   -0.6566 C   0  0  0  0  0  0  0  0  0  0  0  0
   -2.3615   -0.4831   -1.0062 C   0  0  0  0  0  0  0  0  0  0  0  0
   -1.6257   -2.4704   -1.4151 H   0  0  0  0  0  0  0  0  0  0  0  0
    0.7587   -1.8624   -1.0365 H   0  0  0  0  0  0  0  0  0  0  0  0
   -0.4018    2.1781   -0.1696 H   0  0  0  0  0  0  0  0  0  0  0  0
   -2.8051    1.5781   -0.5496 H   0  0  0  0  0  0  0  0  0  0  0  0
    1.6328    0.6599   -0.3454 N   0  0  0  0  0  0  0  0  0  0  0  0
    2.5233   -0.1531   -0.4757 N   0  0  0  0  0  0  0  0  0  0  0  0
    4.2007    0.6268   -0.1268 Cl  0  0  0  0  0  0  0  0  0  0  0  0
   -3.4001   -0.7526   -1.1741 H   0  0  0  0  0  0  0  0  0  0  0  0
  1  6  2  0  0  0  0
  1  2  1  0  0  0  0
  2  3  2  0  0  0  0
  3  4  1  0  0  0  0
  3 11  1  0  0  0  0
  4  9  1  0  0  0  0
  5 10  1  0  0  0  0
  5  4  2  0  0  0  0
  6  5  1  0  0  0  0
  7  1  1  0  0  0  0
  8  2  1  0  0  0  0
 12 11  1  0  0  0  0
 12 13  1  0  0  0  0
 14  6  1  0  0  0  0
M  RAD  2  11   2  12   2
M  END
