Coordinates from ORCA-job Ph-N2-Cl-B3LYPG-6-31G_dp-scan-d09-49-n400
 OpenBabel08281820523D

 14 14  0  0  0  0  0  0  0  0999 V2000
   -1.3385   -1.4479   -1.1396 C   0  0  0  0  0  0  0  0  0  0  0  0
   -0.0082   -1.1044   -0.9285 C   0  0  0  0  0  0  0  0  0  0  0  0
    0.3107    0.2181   -0.5786 C   0  0  0  0  0  0  0  0  0  0  0  0
   -0.6974    1.1793   -0.4421 C   0  0  0  0  0  0  0  0  0  0  0  0
   -2.0287    0.8248   -0.6566 C   0  0  0  0  0  0  0  0  0  0  0  0
   -2.3495   -0.4876   -1.0056 C   0  0  0  0  0  0  0  0  0  0  0  0
   -1.5937   -2.4678   -1.4116 H   0  0  0  0  0  0  0  0  0  0  0  0
    0.7839   -1.8374   -1.0297 H   0  0  0  0  0  0  0  0  0  0  0  0
   -0.4139    2.1902   -0.1688 H   0  0  0  0  0  0  0  0  0  0  0  0
   -2.8111    1.5699   -0.5512 H   0  0  0  0  0  0  0  0  0  0  0  0
    1.6309    0.7012   -0.3371 N   0  0  0  0  0  0  0  0  0  0  0  0
    2.5230   -0.1424   -0.4705 N   0  0  0  0  0  0  0  0  0  0  0  0
    4.0865    0.5110   -0.1641 Cl  0  0  0  0  0  0  0  0  0  0  0  0
   -3.3853   -0.7670   -1.1748 H   0  0  0  0  0  0  0  0  0  0  0  0
  1  6  2  0  0  0  0
  1  2  1  0  0  0  0
  2  3  2  0  0  0  0
  3  4  1  0  0  0  0
  3 11  1  0  0  0  0
  4  9  1  0  0  0  0
  5 10  1  0  0  0  0
  5  4  2  0  0  0  0
  6  5  1  0  0  0  0
  7  1  1  0  0  0  0
  8  2  1  0  0  0  0
 12 11  1  0  0  0  0
 12 13  1  0  0  0  0
 14  6  1  0  0  0  0
M  RAD  2  11   2  12   2
M  END
