Coordinates from ORCA-job Ph-N2-Cl-B3LYPG-6-31G_dp-scan-d09-49-n400
 OpenBabel08281820523D

 14 13  0  0  0  0  0  0  0  0999 V2000
   -1.5528   -1.4151   -1.1583 C   0  0  0  0  0  0  0  0  0  0  0  0
   -0.1693   -1.4139   -1.0587 C   0  0  0  0  0  0  0  0  0  0  0  0
    0.4565   -0.2075   -0.6933 C   0  0  0  0  0  0  0  0  0  0  0  0
   -0.2314    0.9685   -0.4301 C   0  0  0  0  0  0  0  0  0  0  0  0
   -1.6224    0.9351   -0.5389 C   0  0  0  0  0  0  0  0  0  0  0  0
   -2.2781   -0.2429   -0.8991 C   0  0  0  0  0  0  0  0  0  0  0  0
   -2.0669   -2.3287   -1.4386 H   0  0  0  0  0  0  0  0  0  0  0  0
    0.4196   -2.3037   -1.2537 H   0  0  0  0  0  0  0  0  0  0  0  0
    0.3480    1.8574   -0.1524 H   0  0  0  0  0  0  0  0  0  0  0  0
   -2.1893    1.8383   -0.3392 H   0  0  0  0  0  0  0  0  0  0  0  0
    1.8881   -0.2596   -0.6048 N   0  0  0  0  0  0  0  0  0  0  0  0
    2.7723   -0.9603   -0.7277 N   0  0  0  0  0  0  0  0  0  0  0  0
    2.2954    2.7281    0.2175 Cl  0  0  0  0  0  0  0  0  0  0  0  0
   -3.3610   -0.2557   -0.9813 H   0  0  0  0  0  0  0  0  0  0  0  0
  1  2  2  0  0  0  0
  1  6  1  0  0  0  0
  2  3  1  0  0  0  0
  3 11  1  0  0  0  0
  3  4  2  0  0  0  0
  4  9  1  0  0  0  0
  5  4  1  0  0  0  0
  5 10  1  0  0  0  0
  6  5  2  0  0  0  0
  7  1  1  0  0  0  0
  8  2  1  0  0  0  0
 12 11  2  0  0  0  0
 14  6  1  0  0  0  0
M  RAD  2  12   2  13   2
M  END
