Coordinates from ORCA-job Ph-N2-Cl-B3LYPG-6-31G_dp-scan-d09-49-n400
 OpenBabel08281820523D

 14 13  0  0  0  0  0  0  0  0999 V2000
   -1.6350   -1.4126   -1.1664 C   0  0  0  0  0  0  0  0  0  0  0  0
   -0.2669   -1.5867   -1.1138 C   0  0  0  0  0  0  0  0  0  0  0  0
    0.5130   -0.4572   -0.7529 C   0  0  0  0  0  0  0  0  0  0  0  0
   -0.0162    0.8125   -0.4495 C   0  0  0  0  0  0  0  0  0  0  0  0
   -1.4040    0.9308   -0.5201 C   0  0  0  0  0  0  0  0  0  0  0  0
   -2.2034   -0.1562   -0.8703 C   0  0  0  0  0  0  0  0  0  0  0  0
   -2.2705   -2.2487   -1.4380 H   0  0  0  0  0  0  0  0  0  0  0  0
    0.2023   -2.5384   -1.3377 H   0  0  0  0  0  0  0  0  0  0  0  0
    0.6199    1.6873   -0.1713 H   0  0  0  0  0  0  0  0  0  0  0  0
   -1.8404    1.8983   -0.2927 H   0  0  0  0  0  0  0  0  0  0  0  0
    1.8707   -0.6216   -0.6977 N   0  0  0  0  0  0  0  0  0  0  0  0
    2.9794   -0.7946   -0.6649 N   0  0  0  0  0  0  0  0  0  0  0  0
    1.4418    3.4669    0.3348 Cl  0  0  0  0  0  0  0  0  0  0  0  0
   -3.2822   -0.0398   -0.9183 H   0  0  0  0  0  0  0  0  0  0  0  0
  1  2  2  0  0  0  0
  1  6  1  0  0  0  0
  2  3  1  0  0  0  0
  3 11  1  0  0  0  0
  3  4  2  0  0  0  0
  4  9  1  0  0  0  0
  5  4  1  0  0  0  0
  5 10  1  0  0  0  0
  6  5  2  0  0  0  0
  7  1  1  0  0  0  0
  8  2  1  0  0  0  0
 11 12  1  0  0  0  0
 14  6  1  0  0  0  0
M  RAD  3  11   2  12   3  13   2
M  END
