Coordinates from ORCA-job Ph-N2-Cl-B3LYPG-6-31G_dp-scan-d09-49-n400
 OpenBabel08281820523D

 14 13  0  0  0  0  0  0  0  0999 V2000
   -1.4892   -1.4793   -1.1610 C   0  0  0  0  0  0  0  0  0  0  0  0
   -0.1320   -1.2414   -0.9758 C   0  0  0  0  0  0  0  0  0  0  0  0
    0.2712    0.0555   -0.6254 C   0  0  0  0  0  0  0  0  0  0  0  0
   -0.6382    1.1022   -0.4582 C   0  0  0  0  0  0  0  0  0  0  0  0
   -1.9938    0.8427   -0.6483 C   0  0  0  0  0  0  0  0  0  0  0  0
   -2.4158   -0.4422   -0.9984 C   0  0  0  0  0  0  0  0  0  0  0  0
   -1.8268   -2.4740   -1.4336 H   0  0  0  0  0  0  0  0  0  0  0  0
    0.6062   -2.0269   -1.0960 H   0  0  0  0  0  0  0  0  0  0  0  0
   -0.2742    2.0865   -0.1856 H   0  0  0  0  0  0  0  0  0  0  0  0
   -2.7174    1.6412   -0.5234 H   0  0  0  0  0  0  0  0  0  0  0  0
    1.6423    0.3532   -0.4256 N   0  0  0  0  0  0  0  0  0  0  0  0
    2.6504   -0.2083   -0.4682 N   0  0  0  0  0  0  0  0  0  0  0  0
    4.4989    1.3709    0.0878 Cl  0  0  0  0  0  0  0  0  0  0  0  0
   -3.4729   -0.6401   -1.1471 H   0  0  0  0  0  0  0  0  0  0  0  0
  1  6  2  0  0  0  0
  1  2  1  0  0  0  0
  2  3  2  0  0  0  0
  3  4  1  0  0  0  0
  3 11  1  0  0  0  0
  4  9  1  0  0  0  0
  5 10  1  0  0  0  0
  5  4  2  0  0  0  0
  6  5  1  0  0  0  0
  7  1  1  0  0  0  0
  8  2  1  0  0  0  0
 12 11  2  0  0  0  0
 14  6  1  0  0  0  0
M  RAD  2  12   2  13   2
M  END
