Coordinates from ORCA-job Ph-N2-Cl-B3LYPG-6-31G_dp-scan-d09-49-n400
 OpenBabel08281820513D

 14 14  0  0  0  0  0  0  0  0999 V2000
   -1.2785   -1.4314   -1.1303 C   0  0  0  0  0  0  0  0  0  0  0  0
    0.0410   -1.0514   -0.9124 C   0  0  0  0  0  0  0  0  0  0  0  0
    0.3374    0.2792   -0.5628 C   0  0  0  0  0  0  0  0  0  0  0  0
   -0.7087    1.2072   -0.4373 C   0  0  0  0  0  0  0  0  0  0  0  0
   -2.0284    0.8184   -0.6575 C   0  0  0  0  0  0  0  0  0  0  0  0
   -2.3183   -0.5021   -1.0053 C   0  0  0  0  0  0  0  0  0  0  0  0
   -1.5026   -2.4594   -1.4016 H   0  0  0  0  0  0  0  0  0  0  0  0
    0.8513   -1.7649   -1.0085 H   0  0  0  0  0  0  0  0  0  0  0  0
   -0.4577    2.2275   -0.1651 H   0  0  0  0  0  0  0  0  0  0  0  0
   -2.8293    1.5451   -0.5576 H   0  0  0  0  0  0  0  0  0  0  0  0
    1.6242    0.7949   -0.3171 N   0  0  0  0  0  0  0  0  0  0  0  0
    2.5776   -0.0691   -0.4429 N   0  0  0  0  0  0  0  0  0  0  0  0
    3.7461    0.1548   -0.2808 Cl  0  0  0  0  0  0  0  0  0  0  0  0
   -3.3456   -0.8087   -1.1796 H   0  0  0  0  0  0  0  0  0  0  0  0
  1  6  2  0  0  0  0
  1  2  1  0  0  0  0
  2  3  2  0  0  0  0
  3  4  1  0  0  0  0
  3 11  1  0  0  0  0
  4  9  1  0  0  0  0
  5 10  1  0  0  0  0
  5  4  2  0  0  0  0
  6  5  1  0  0  0  0
  7  1  1  0  0  0  0
  8  2  1  0  0  0  0
 12 11  1  0  0  0  0
 12 13  1  0  0  0  0
 14  6  1  0  0  0  0
M  RAD  2  11   2  12   2
M  END
