Coordinates from ORCA-job Ph-N2-Cl-B3LYPG-6-31G_dp-scan-d09-49-n400
 OpenBabel08281820513D

 14 14  0  0  0  0  0  0  0  0999 V2000
   -1.2925   -1.4356   -1.1326 C   0  0  0  0  0  0  0  0  0  0  0  0
    0.0296   -1.0646   -0.9163 C   0  0  0  0  0  0  0  0  0  0  0  0
    0.3311    0.2642   -0.5666 C   0  0  0  0  0  0  0  0  0  0  0  0
   -0.7056    1.2004   -0.4384 C   0  0  0  0  0  0  0  0  0  0  0  0
   -2.0285    0.8203   -0.6573 C   0  0  0  0  0  0  0  0  0  0  0  0
   -2.3254   -0.4982   -1.0053 C   0  0  0  0  0  0  0  0  0  0  0  0
   -1.5248   -2.4616   -1.4040 H   0  0  0  0  0  0  0  0  0  0  0  0
    0.8373   -1.7806   -1.0128 H   0  0  0  0  0  0  0  0  0  0  0  0
   -0.4461    2.2184   -0.1658 H   0  0  0  0  0  0  0  0  0  0  0  0
   -2.8252    1.5514   -0.5562 H   0  0  0  0  0  0  0  0  0  0  0  0
    1.6257    0.7718   -0.3214 N   0  0  0  0  0  0  0  0  0  0  0  0
    2.5624   -0.0896   -0.4512 N   0  0  0  0  0  0  0  0  0  0  0  0
    3.8256    0.2421   -0.2525 Cl  0  0  0  0  0  0  0  0  0  0  0  0
   -3.3548   -0.7984   -1.1784 H   0  0  0  0  0  0  0  0  0  0  0  0
  1  6  2  0  0  0  0
  1  2  1  0  0  0  0
  2  3  2  0  0  0  0
  3  4  1  0  0  0  0
  3 11  1  0  0  0  0
  4  9  1  0  0  0  0
  5 10  1  0  0  0  0
  5  4  2  0  0  0  0
  6  5  1  0  0  0  0
  7  1  1  0  0  0  0
  8  2  1  0  0  0  0
 12 11  1  0  0  0  0
 12 13  1  0  0  0  0
 14  6  1  0  0  0  0
M  RAD  2  11   2  12   2
M  END
