Coordinates from ORCA-job Ph-N2-Cl-B3LYPG-6-31G_dp-scan-d09-49-n400
 OpenBabel08281820523D

 14 13  0  0  0  0  0  0  0  0999 V2000
   -1.6480   -1.4561   -1.1756 C   0  0  0  0  0  0  0  0  0  0  0  0
   -0.2625   -1.5276   -1.0948 C   0  0  0  0  0  0  0  0  0  0  0  0
    0.4342   -0.3667   -0.7359 C   0  0  0  0  0  0  0  0  0  0  0  0
   -0.1878    0.8574   -0.4544 C   0  0  0  0  0  0  0  0  0  0  0  0
   -1.5772    0.8951   -0.5444 C   0  0  0  0  0  0  0  0  0  0  0  0
   -2.3003   -0.2475   -0.9011 C   0  0  0  0  0  0  0  0  0  0  0  0
   -2.2187   -2.3363   -1.4516 H   0  0  0  0  0  0  0  0  0  0  0  0
    0.2774   -2.4452   -1.3011 H   0  0  0  0  0  0  0  0  0  0  0  0
    0.4269    1.7171   -0.1817 H   0  0  0  0  0  0  0  0  0  0  0  0
   -2.0958    1.8249   -0.3336 H   0  0  0  0  0  0  0  0  0  0  0  0
    1.8349   -0.4432   -0.6574 N   0  0  0  0  0  0  0  0  0  0  0  0
    2.8439    0.0542   -0.4564 N   0  0  0  0  0  0  0  0  0  0  0  0
    2.5650    2.6118    0.1966 Cl  0  0  0  0  0  0  0  0  0  0  0  0
   -3.3833   -0.1980   -0.9673 H   0  0  0  0  0  0  0  0  0  0  0  0
  1  2  2  0  0  0  0
  1  6  1  0  0  0  0
  2  3  1  0  0  0  0
  3 11  1  0  0  0  0
  3  4  2  0  0  0  0
  4  9  1  0  0  0  0
  5  4  1  0  0  0  0
  5 10  1  0  0  0  0
  6  5  2  0  0  0  0
  7  1  1  0  0  0  0
  8  2  1  0  0  0  0
 11 12  2  0  0  0  0
 14  6  1  0  0  0  0
M  RAD  2  12   2  13   2
M  END
