Coordinates from ORCA-job Ph-N2-Cl-B3LYPG-6-31G_dp-scan-d09-49-n400
 OpenBabel08281820523D

 14 14  0  0  0  0  0  0  0  0999 V2000
   -1.3623   -1.4536   -1.1430 C   0  0  0  0  0  0  0  0  0  0  0  0
   -0.0281   -1.1234   -0.9340 C   0  0  0  0  0  0  0  0  0  0  0  0
    0.2987    0.1959   -0.5840 C   0  0  0  0  0  0  0  0  0  0  0  0
   -0.6947    1.1697   -0.4435 C   0  0  0  0  0  0  0  0  0  0  0  0
   -2.0293    0.8266   -0.6566 C   0  0  0  0  0  0  0  0  0  0  0  0
   -2.3624   -0.4828   -1.0062 C   0  0  0  0  0  0  0  0  0  0  0  0
   -1.6279   -2.4706   -1.4153 H   0  0  0  0  0  0  0  0  0  0  0  0
    0.7569   -1.8642   -1.0371 H   0  0  0  0  0  0  0  0  0  0  0  0
   -0.4009    2.1773   -0.1698 H   0  0  0  0  0  0  0  0  0  0  0  0
   -2.8046    1.5787   -0.5494 H   0  0  0  0  0  0  0  0  0  0  0  0
    1.6330    0.6571   -0.3461 N   0  0  0  0  0  0  0  0  0  0  0  0
    2.5238   -0.1537   -0.4760 N   0  0  0  0  0  0  0  0  0  0  0  0
    4.2079    0.6348   -0.1240 Cl  0  0  0  0  0  0  0  0  0  0  0  0
   -3.4011   -0.7516   -1.1738 H   0  0  0  0  0  0  0  0  0  0  0  0
  1  6  2  0  0  0  0
  1  2  1  0  0  0  0
  2  3  2  0  0  0  0
  3  4  1  0  0  0  0
  3 11  1  0  0  0  0
  4  9  1  0  0  0  0
  5 10  1  0  0  0  0
  5  4  2  0  0  0  0
  6  5  1  0  0  0  0
  7  1  1  0  0  0  0
  8  2  1  0  0  0  0
 12 11  1  0  0  0  0
 12 13  1  0  0  0  0
 14  6  1  0  0  0  0
M  RAD  2  11   2  12   2
M  END
