Coordinates from ORCA-job Ph-N2-Cl-B3LYPG-6-31G_dp-scan-d09-49-n400
 OpenBabel08281820523D

 14 13  0  0  0  0  0  0  0  0999 V2000
   -1.6577   -1.4531   -1.1749 C   0  0  0  0  0  0  0  0  0  0  0  0
   -0.2764   -1.5635   -1.1054 C   0  0  0  0  0  0  0  0  0  0  0  0
    0.4436   -0.4133   -0.7484 C   0  0  0  0  0  0  0  0  0  0  0  0
   -0.1344    0.8315   -0.4589 C   0  0  0  0  0  0  0  0  0  0  0  0
   -1.5240    0.8994   -0.5403 C   0  0  0  0  0  0  0  0  0  0  0  0
   -2.2755   -0.2251   -0.8931 C   0  0  0  0  0  0  0  0  0  0  0  0
   -2.2549   -2.3164   -1.4474 H   0  0  0  0  0  0  0  0  0  0  0  0
    0.2384   -2.4943   -1.3167 H   0  0  0  0  0  0  0  0  0  0  0  0
    0.5106    1.6842   -0.1869 H   0  0  0  0  0  0  0  0  0  0  0  0
   -2.0174    1.8417   -0.3248 H   0  0  0  0  0  0  0  0  0  0  0  0
    1.8362   -0.4918   -0.6709 N   0  0  0  0  0  0  0  0  0  0  0  0
    2.8938   -0.1313   -0.5022 N   0  0  0  0  0  0  0  0  0  0  0  0
    2.2839    2.9215    0.2627 Cl  0  0  0  0  0  0  0  0  0  0  0  0
   -3.3575   -0.1495   -0.9517 H   0  0  0  0  0  0  0  0  0  0  0  0
  1  2  2  0  0  0  0
  1  6  1  0  0  0  0
  2  3  1  0  0  0  0
  3 11  1  0  0  0  0
  3  4  2  0  0  0  0
  4  9  1  0  0  0  0
  5  4  1  0  0  0  0
  5 10  1  0  0  0  0
  6  5  2  0  0  0  0
  7  1  1  0  0  0  0
  8  2  1  0  0  0  0
 11 12  1  0  0  0  0
 14  6  1  0  0  0  0
M  RAD  3  11   2  12   3  13   2
M  END
