Coordinates from ORCA-job Ph-N2-Cl-B3LYPG-6-31G_dp-scan-d09-49-n400
 OpenBabel08281820523D

 14 13  0  0  0  0  0  0  0  0999 V2000
   -1.6557   -1.4557   -1.1757 C   0  0  0  0  0  0  0  0  0  0  0  0
   -0.2724   -1.5515   -1.1019 C   0  0  0  0  0  0  0  0  0  0  0  0
    0.4380   -0.3975   -0.7443 C   0  0  0  0  0  0  0  0  0  0  0  0
   -0.1560    0.8396   -0.4578 C   0  0  0  0  0  0  0  0  0  0  0  0
   -1.5455    0.8966   -0.5422 C   0  0  0  0  0  0  0  0  0  0  0  0
   -2.2864   -0.2350   -0.8966 C   0  0  0  0  0  0  0  0  0  0  0  0
   -2.2431   -2.3254   -1.4496 H   0  0  0  0  0  0  0  0  0  0  0  0
    0.2520   -2.4773   -1.3114 H   0  0  0  0  0  0  0  0  0  0  0  0
    0.4795    1.6926   -0.1861 H   0  0  0  0  0  0  0  0  0  0  0  0
   -2.0485    1.8342   -0.3285 H   0  0  0  0  0  0  0  0  0  0  0  0
    1.8351   -0.4725   -0.6654 N   0  0  0  0  0  0  0  0  0  0  0  0
    2.8695   -0.0445   -0.4806 N   0  0  0  0  0  0  0  0  0  0  0  0
    2.4110    2.8056    0.2393 Cl  0  0  0  0  0  0  0  0  0  0  0  0
   -3.3688   -0.1691   -0.9579 H   0  0  0  0  0  0  0  0  0  0  0  0
  1  2  2  0  0  0  0
  1  6  1  0  0  0  0
  2  3  1  0  0  0  0
  3 11  1  0  0  0  0
  3  4  2  0  0  0  0
  4  9  1  0  0  0  0
  5  4  1  0  0  0  0
  5 10  1  0  0  0  0
  6  5  2  0  0  0  0
  7  1  1  0  0  0  0
  8  2  1  0  0  0  0
 11 12  2  0  0  0  0
 14  6  1  0  0  0  0
M  RAD  2  12   2  13   2
M  END
