Coordinates from ORCA-job Ph-N2-Cl-B3LYPG-6-31G_dp-scan-d09-49-n400
 OpenBabel08281820523D

 14 13  0  0  0  0  0  0  0  0999 V2000
   -1.5798   -1.4188   -1.1606 C   0  0  0  0  0  0  0  0  0  0  0  0
   -0.1981   -1.4700   -1.0751 C   0  0  0  0  0  0  0  0  0  0  0  0
    0.4739   -0.2836   -0.7126 C   0  0  0  0  0  0  0  0  0  0  0  0
   -0.1655    0.9215   -0.4389 C   0  0  0  0  0  0  0  0  0  0  0  0
   -1.5576    0.9344   -0.5351 C   0  0  0  0  0  0  0  0  0  0  0  0
   -2.2577   -0.2187   -0.8913 C   0  0  0  0  0  0  0  0  0  0  0  0
   -2.1314   -2.3113   -1.4372 H   0  0  0  0  0  0  0  0  0  0  0  0
    0.3569   -2.3800   -1.2773 H   0  0  0  0  0  0  0  0  0  0  0  0
    0.4451    1.8031   -0.1613 H   0  0  0  0  0  0  0  0  0  0  0  0
   -2.0886    1.8576   -0.3279 H   0  0  0  0  0  0  0  0  0  0  0  0
    1.8850   -0.3871   -0.6401 N   0  0  0  0  0  0  0  0  0  0  0  0
    2.8339   -0.9946   -0.7346 N   0  0  0  0  0  0  0  0  0  0  0  0
    2.0338    3.0800    0.2962 Cl  0  0  0  0  0  0  0  0  0  0  0  0
   -3.3412   -0.1924   -0.9632 H   0  0  0  0  0  0  0  0  0  0  0  0
  1  2  2  0  0  0  0
  1  6  1  0  0  0  0
  2  3  1  0  0  0  0
  3 11  1  0  0  0  0
  3  4  2  0  0  0  0
  4  9  1  0  0  0  0
  5  4  1  0  0  0  0
  5 10  1  0  0  0  0
  6  5  2  0  0  0  0
  7  1  1  0  0  0  0
  8  2  1  0  0  0  0
 12 11  2  0  0  0  0
 14  6  1  0  0  0  0
M  RAD  2  12   2  13   2
M  END
