Coordinates from ORCA-job Ph-N2-Cl-B3LYPG-6-31G_dp-scan-d09-49-n400
 OpenBabel08281820513D

 14 14  0  0  0  0  0  0  0  0999 V2000
   -1.2552   -1.4244   -1.1265 C   0  0  0  0  0  0  0  0  0  0  0  0
    0.0604   -1.0296   -0.9056 C   0  0  0  0  0  0  0  0  0  0  0  0
    0.3494    0.3044   -0.5558 C   0  0  0  0  0  0  0  0  0  0  0  0
   -0.7129    1.2188   -0.4350 C   0  0  0  0  0  0  0  0  0  0  0  0
   -2.0264    0.8149   -0.6580 C   0  0  0  0  0  0  0  0  0  0  0  0
   -2.3059   -0.5087   -1.0055 C   0  0  0  0  0  0  0  0  0  0  0  0
   -1.4652   -2.4556   -1.3974 H   0  0  0  0  0  0  0  0  0  0  0  0
    0.8714   -1.7437   -1.0021 H   0  0  0  0  0  0  0  0  0  0  0  0
   -0.4764    2.2427   -0.1634 H   0  0  0  0  0  0  0  0  0  0  0  0
   -2.8341    1.5349   -0.5602 H   0  0  0  0  0  0  0  0  0  0  0  0
    1.6217    0.8353   -0.3080 N   0  0  0  0  0  0  0  0  0  0  0  0
    2.6040   -0.0375   -0.4318 N   0  0  0  0  0  0  0  0  0  0  0  0
    3.6075    0.0141   -0.3274 Cl  0  0  0  0  0  0  0  0  0  0  0  0
   -3.3295   -0.8257   -1.1819 H   0  0  0  0  0  0  0  0  0  0  0  0
  1  6  2  0  0  0  0
  1  2  1  0  0  0  0
  2  3  2  0  0  0  0
  3  4  1  0  0  0  0
  3 11  1  0  0  0  0
  4  9  1  0  0  0  0
  5 10  1  0  0  0  0
  5  4  2  0  0  0  0
  6  5  1  0  0  0  0
  7  1  1  0  0  0  0
  8  2  1  0  0  0  0
 12 13  1  0  0  0  0
 12 11  1  0  0  0  0
 14  6  1  0  0  0  0
M  RAD  2  11   2  12   2
M  END
