Coordinates from ORCA-job Ph-N2-Cl-B3LYPG-6-31G_dp-scan-d09-49-n400
 OpenBabel08281820523D

 14 13  0  0  0  0  0  0  0  0999 V2000
   -1.6534   -1.4563   -1.1759 C   0  0  0  0  0  0  0  0  0  0  0  0
   -0.2693   -1.5434   -1.0995 C   0  0  0  0  0  0  0  0  0  0  0  0
    0.4359   -0.3870   -0.7414 C   0  0  0  0  0  0  0  0  0  0  0  0
   -0.1679    0.8455   -0.4567 C   0  0  0  0  0  0  0  0  0  0  0  0
   -1.5574    0.8957   -0.5431 C   0  0  0  0  0  0  0  0  0  0  0  0
   -2.2919   -0.2400   -0.8984 C   0  0  0  0  0  0  0  0  0  0  0  0
   -2.2349   -2.3298   -1.4505 H   0  0  0  0  0  0  0  0  0  0  0  0
    0.2608   -2.4663   -1.3079 H   0  0  0  0  0  0  0  0  0  0  0  0
    0.4606    1.7003   -0.1849 H   0  0  0  0  0  0  0  0  0  0  0  0
   -2.0661    1.8304   -0.3305 H   0  0  0  0  0  0  0  0  0  0  0  0
    1.8348   -0.4616   -0.6624 N   0  0  0  0  0  0  0  0  0  0  0  0
    2.8585   -0.0047   -0.4709 N   0  0  0  0  0  0  0  0  0  0  0  0
    2.4736    2.7372    0.2248 Cl  0  0  0  0  0  0  0  0  0  0  0  0
   -3.3746   -0.1800   -0.9614 H   0  0  0  0  0  0  0  0  0  0  0  0
  1  2  2  0  0  0  0
  1  6  1  0  0  0  0
  2  3  1  0  0  0  0
  3 11  1  0  0  0  0
  3  4  2  0  0  0  0
  4  9  1  0  0  0  0
  5  4  1  0  0  0  0
  5 10  1  0  0  0  0
  6  5  2  0  0  0  0
  7  1  1  0  0  0  0
  8  2  1  0  0  0  0
 11 12  2  0  0  0  0
 14  6  1  0  0  0  0
M  RAD  2  12   2  13   2
M  END
