Coordinates from ORCA-job Ph-N2-Cl-B3LYPG-6-31G_dp-scan-d09-49-n400
 OpenBabel08281820523D

 14 13  0  0  0  0  0  0  0  0999 V2000
   -1.5774   -1.4188   -1.1604 C   0  0  0  0  0  0  0  0  0  0  0  0
   -0.1954   -1.4650   -1.0736 C   0  0  0  0  0  0  0  0  0  0  0  0
    0.4723   -0.2766   -0.7108 C   0  0  0  0  0  0  0  0  0  0  0  0
   -0.1716    0.9259   -0.4381 C   0  0  0  0  0  0  0  0  0  0  0  0
   -1.5636    0.9342   -0.5355 C   0  0  0  0  0  0  0  0  0  0  0  0
   -2.2597   -0.2213   -0.8921 C   0  0  0  0  0  0  0  0  0  0  0  0
   -2.1255   -2.3133   -1.4374 H   0  0  0  0  0  0  0  0  0  0  0  0
    0.3629   -2.3731   -1.2752 H   0  0  0  0  0  0  0  0  0  0  0  0
    0.4359    1.8085   -0.1605 H   0  0  0  0  0  0  0  0  0  0  0  0
   -2.0982    1.8555   -0.3291 H   0  0  0  0  0  0  0  0  0  0  0  0
    1.8855   -0.3766   -0.6372 N   0  0  0  0  0  0  0  0  0  0  0  0
    2.8270   -0.9957   -0.7352 N   0  0  0  0  0  0  0  0  0  0  0  0
    2.0597    3.0548    0.2912 Cl  0  0  0  0  0  0  0  0  0  0  0  0
   -3.3432   -0.1986   -0.9649 H   0  0  0  0  0  0  0  0  0  0  0  0
  1  2  2  0  0  0  0
  1  6  1  0  0  0  0
  2  3  1  0  0  0  0
  3 11  1  0  0  0  0
  3  4  2  0  0  0  0
  4  9  1  0  0  0  0
  5  4  1  0  0  0  0
  5 10  1  0  0  0  0
  6  5  2  0  0  0  0
  7  1  1  0  0  0  0
  8  2  1  0  0  0  0
 12 11  2  0  0  0  0
 14  6  1  0  0  0  0
M  RAD  2  12   2  13   2
M  END
