Coordinates from ORCA-job Ph-N2-Cl-B3LYPG-6-31G_dp-scan-d09-49-n400
 OpenBabel08281820523D

 14 14  0  0  0  0  0  0  0  0999 V2000
   -1.3072   -1.4398   -1.1349 C   0  0  0  0  0  0  0  0  0  0  0  0
    0.0176   -1.0779   -0.9203 C   0  0  0  0  0  0  0  0  0  0  0  0
    0.3249    0.2488   -0.5705 C   0  0  0  0  0  0  0  0  0  0  0  0
   -0.7024    1.1933   -0.4396 C   0  0  0  0  0  0  0  0  0  0  0  0
   -2.0284    0.8221   -0.6570 C   0  0  0  0  0  0  0  0  0  0  0  0
   -2.3328   -0.4945   -1.0053 C   0  0  0  0  0  0  0  0  0  0  0  0
   -1.5475   -2.4637   -1.4066 H   0  0  0  0  0  0  0  0  0  0  0  0
    0.8209   -1.7987   -1.0180 H   0  0  0  0  0  0  0  0  0  0  0  0
   -0.4344    2.2089   -0.1667 H   0  0  0  0  0  0  0  0  0  0  0  0
   -2.8204    1.5577   -0.5545 H   0  0  0  0  0  0  0  0  0  0  0  0
    1.6273    0.7495   -0.3265 N   0  0  0  0  0  0  0  0  0  0  0  0
    2.5468   -0.1109   -0.4583 N   0  0  0  0  0  0  0  0  0  0  0  0
    3.9086    0.3329   -0.2235 Cl  0  0  0  0  0  0  0  0  0  0  0  0
   -3.3644   -0.7878   -1.1772 H   0  0  0  0  0  0  0  0  0  0  0  0
  1  6  2  0  0  0  0
  1  2  1  0  0  0  0
  2  3  2  0  0  0  0
  3  4  1  0  0  0  0
  3 11  1  0  0  0  0
  4  9  1  0  0  0  0
  5 10  1  0  0  0  0
  5  4  2  0  0  0  0
  6  5  1  0  0  0  0
  7  1  1  0  0  0  0
  8  2  1  0  0  0  0
 12 11  1  0  0  0  0
 12 13  1  0  0  0  0
 14  6  1  0  0  0  0
M  RAD  2  11   2  12   2
M  END
