Coordinates from ORCA-job Ph-N2-Cl-B3LYPG-6-31G_dp-scan-d09-49-n400
 OpenBabel08281820523D

 14 13  0  0  0  0  0  0  0  0999 V2000
   -1.6570   -1.4546   -1.1754 C   0  0  0  0  0  0  0  0  0  0  0  0
   -0.2746   -1.5576   -1.1037 C   0  0  0  0  0  0  0  0  0  0  0  0
    0.4405   -0.4056   -0.7464 C   0  0  0  0  0  0  0  0  0  0  0  0
   -0.1457    0.8354   -0.4584 C   0  0  0  0  0  0  0  0  0  0  0  0
   -1.5352    0.8977   -0.5414 C   0  0  0  0  0  0  0  0  0  0  0  0
   -2.2813   -0.2305   -0.8950 C   0  0  0  0  0  0  0  0  0  0  0  0
   -2.2492   -2.3212   -1.4486 H   0  0  0  0  0  0  0  0  0  0  0  0
    0.2451   -2.4858   -1.3141 H   0  0  0  0  0  0  0  0  0  0  0  0
    0.4942    1.6881   -0.1866 H   0  0  0  0  0  0  0  0  0  0  0  0
   -2.0336    1.8376   -0.3268 H   0  0  0  0  0  0  0  0  0  0  0  0
    1.8357   -0.4828   -0.6684 N   0  0  0  0  0  0  0  0  0  0  0  0
    2.8808   -0.0845   -0.4907 N   0  0  0  0  0  0  0  0  0  0  0  0
    2.3526    2.8634    0.2514 Cl  0  0  0  0  0  0  0  0  0  0  0  0
   -3.3636   -0.1597   -0.9549 H   0  0  0  0  0  0  0  0  0  0  0  0
  1  2  2  0  0  0  0
  1  6  1  0  0  0  0
  2  3  1  0  0  0  0
  3 11  1  0  0  0  0
  3  4  2  0  0  0  0
  4  9  1  0  0  0  0
  5  4  1  0  0  0  0
  5 10  1  0  0  0  0
  6  5  2  0  0  0  0
  7  1  1  0  0  0  0
  8  2  1  0  0  0  0
 11 12  1  0  0  0  0
 14  6  1  0  0  0  0
M  RAD  3  11   2  12   3  13   2
M  END
