Coordinates from ORCA-job Ph-N2-Cl-B3LYPG-6-31G_dp-scan-d09-49-n400
 OpenBabel08281820523D

 14 14  0  0  0  0  0  0  0  0999 V2000
   -1.3241   -1.4443   -1.1375 C   0  0  0  0  0  0  0  0  0  0  0  0
    0.0038   -1.0925   -0.9251 C   0  0  0  0  0  0  0  0  0  0  0  0
    0.3177    0.2320   -0.5753 C   0  0  0  0  0  0  0  0  0  0  0  0
   -0.6993    1.1856   -0.4412 C   0  0  0  0  0  0  0  0  0  0  0  0
   -2.0284    0.8236   -0.6565 C   0  0  0  0  0  0  0  0  0  0  0  0
   -2.3416   -0.4907   -1.0052 C   0  0  0  0  0  0  0  0  0  0  0  0
   -1.5727   -2.4659   -1.4095 H   0  0  0  0  0  0  0  0  0  0  0  0
    0.8010   -1.8199   -1.0251 H   0  0  0  0  0  0  0  0  0  0  0  0
   -0.4225    2.1986   -0.1683 H   0  0  0  0  0  0  0  0  0  0  0  0
   -2.8152    1.5644   -0.5523 H   0  0  0  0  0  0  0  0  0  0  0  0
    1.6294    0.7245   -0.3331 N   0  0  0  0  0  0  0  0  0  0  0  0
    2.5311   -0.1313   -0.4643 N   0  0  0  0  0  0  0  0  0  0  0  0
    4.0052    0.4321   -0.1902 Cl  0  0  0  0  0  0  0  0  0  0  0  0
   -3.3756   -0.7764   -1.1754 H   0  0  0  0  0  0  0  0  0  0  0  0
  1  6  2  0  0  0  0
  1  2  1  0  0  0  0
  2  3  2  0  0  0  0
  3  4  1  0  0  0  0
  3 11  1  0  0  0  0
  4  9  1  0  0  0  0
  5 10  1  0  0  0  0
  5  4  2  0  0  0  0
  6  5  1  0  0  0  0
  7  1  1  0  0  0  0
  8  2  1  0  0  0  0
 12 11  1  0  0  0  0
 12 13  1  0  0  0  0
 14  6  1  0  0  0  0
M  RAD  2  11   2  12   2
M  END
