Coordinates from ORCA-job Ph-N2-Cl-B3LYPG-6-31G_dp-scan-d09-49-n400
 OpenBabel08281820523D

 14 13  0  0  0  0  0  0  0  0999 V2000
   -1.4999   -1.4812   -1.1617 C   0  0  0  0  0  0  0  0  0  0  0  0
   -0.1406   -1.2535   -0.9798 C   0  0  0  0  0  0  0  0  0  0  0  0
    0.2721    0.0407   -0.6299 C   0  0  0  0  0  0  0  0  0  0  0  0
   -0.6288    1.0945   -0.4598 C   0  0  0  0  0  0  0  0  0  0  0  0
   -1.9864    0.8446   -0.6473 C   0  0  0  0  0  0  0  0  0  0  0  0
   -2.4183   -0.4373   -0.9967 C   0  0  0  0  0  0  0  0  0  0  0  0
   -1.8455   -2.4733   -1.4337 H   0  0  0  0  0  0  0  0  0  0  0  0
    0.5917   -2.0442   -1.1017 H   0  0  0  0  0  0  0  0  0  0  0  0
   -0.2570    2.0760   -0.1875 H   0  0  0  0  0  0  0  0  0  0  0  0
   -2.7040    1.6482   -0.5207 H   0  0  0  0  0  0  0  0  0  0  0  0
    1.6442    0.3244   -0.4335 N   0  0  0  0  0  0  0  0  0  0  0  0
    2.6637   -0.2117   -0.4733 N   0  0  0  0  0  0  0  0  0  0  0  0
    4.4948    1.4402    0.1099 Cl  0  0  0  0  0  0  0  0  0  0  0  0
   -3.4773   -0.6274   -1.1430 H   0  0  0  0  0  0  0  0  0  0  0  0
  1  6  2  0  0  0  0
  1  2  1  0  0  0  0
  2  3  2  0  0  0  0
  3  4  1  0  0  0  0
  3 11  1  0  0  0  0
  4  9  1  0  0  0  0
  5 10  1  0  0  0  0
  5  4  2  0  0  0  0
  6  5  1  0  0  0  0
  7  1  1  0  0  0  0
  8  2  1  0  0  0  0
 12 11  2  0  0  0  0
 14  6  1  0  0  0  0
M  RAD  2  12   2  13   2
M  END
