Coordinates from ORCA-job Ph-N2-Cl-B3LYPG-6-31G_dp-scan-d09-49-n400
 OpenBabel08281820523D

 14 13  0  0  0  0  0  0  0  0999 V2000
   -1.6337   -1.4161   -1.1662 C   0  0  0  0  0  0  0  0  0  0  0  0
   -0.2645   -1.5808   -1.1112 C   0  0  0  0  0  0  0  0  0  0  0  0
    0.5072   -0.4458   -0.7511 C   0  0  0  0  0  0  0  0  0  0  0  0
   -0.0309    0.8213   -0.4504 C   0  0  0  0  0  0  0  0  0  0  0  0
   -1.4196    0.9296   -0.5230 C   0  0  0  0  0  0  0  0  0  0  0  0
   -2.2109   -0.1634   -0.8730 C   0  0  0  0  0  0  0  0  0  0  0  0
   -2.2632   -2.2569   -1.4373 H   0  0  0  0  0  0  0  0  0  0  0  0
    0.2113   -2.5299   -1.3325 H   0  0  0  0  0  0  0  0  0  0  0  0
    0.6071    1.6954   -0.1719 H   0  0  0  0  0  0  0  0  0  0  0  0
   -1.8652    1.8933   -0.2976 H   0  0  0  0  0  0  0  0  0  0  0  0
    1.8665   -0.6032   -0.6948 N   0  0  0  0  0  0  0  0  0  0  0  0
    2.9749   -0.7764   -0.6625 N   0  0  0  0  0  0  0  0  0  0  0  0
    1.5199    3.4274    0.3359 Cl  0  0  0  0  0  0  0  0  0  0  0  0
   -3.2904   -0.0545   -0.9231 H   0  0  0  0  0  0  0  0  0  0  0  0
  1  2  2  0  0  0  0
  1  6  1  0  0  0  0
  2  3  1  0  0  0  0
  3 11  1  0  0  0  0
  3  4  2  0  0  0  0
  4  9  1  0  0  0  0
  5  4  1  0  0  0  0
  5 10  1  0  0  0  0
  6  5  2  0  0  0  0
  7  1  1  0  0  0  0
  8  2  1  0  0  0  0
 11 12  1  0  0  0  0
 14  6  1  0  0  0  0
M  RAD  3  11   2  12   3  13   2
M  END
