Coordinates from ORCA-job Ph-N2-Cl-B3LYPG-6-31G_dp-scan-d09-49-n400
 OpenBabel08281820523D

 14 13  0  0  0  0  0  0  0  0999 V2000
   -1.6515   -1.4474   -1.1725 C   0  0  0  0  0  0  0  0  0  0  0  0
   -0.2736   -1.5681   -1.1063 C   0  0  0  0  0  0  0  0  0  0  0  0
    0.4527   -0.4164   -0.7492 C   0  0  0  0  0  0  0  0  0  0  0  0
   -0.1159    0.8355   -0.4575 C   0  0  0  0  0  0  0  0  0  0  0  0
   -1.5062    0.9068   -0.5376 C   0  0  0  0  0  0  0  0  0  0  0  0
   -2.2625   -0.2134   -0.8890 C   0  0  0  0  0  0  0  0  0  0  0  0
   -2.2553   -2.3065   -1.4437 H   0  0  0  0  0  0  0  0  0  0  0  0
    0.2345   -2.5023   -1.3187 H   0  0  0  0  0  0  0  0  0  0  0  0
    0.5377    1.6922   -0.1840 H   0  0  0  0  0  0  0  0  0  0  0  0
   -1.9937    1.8520   -0.3211 H   0  0  0  0  0  0  0  0  0  0  0  0
    1.8335   -0.4930   -0.6721 N   0  0  0  0  0  0  0  0  0  0  0  0
    2.9300   -0.2839   -0.5405 N   0  0  0  0  0  0  0  0  0  0  0  0
    2.1232    3.0179    0.2795 Cl  0  0  0  0  0  0  0  0  0  0  0  0
   -3.3443   -0.1335   -0.9461 H   0  0  0  0  0  0  0  0  0  0  0  0
  1  2  2  0  0  0  0
  1  6  1  0  0  0  0
  2  3  1  0  0  0  0
  3 11  1  0  0  0  0
  3  4  2  0  0  0  0
  4  9  1  0  0  0  0
  5  4  1  0  0  0  0
  5 10  1  0  0  0  0
  6  5  2  0  0  0  0
  7  1  1  0  0  0  0
  8  2  1  0  0  0  0
 11 12  1  0  0  0  0
 14  6  1  0  0  0  0
M  RAD  3  11   2  12   3  13   2
M  END
