Coordinates from ORCA-job Ph-N2-Cl-B3LYPG-6-31G_dp-scan-d09-49-n400
 OpenBabel08281820523D

 14 13  0  0  0  0  0  0  0  0999 V2000
   -1.6545   -1.4561   -1.1758 C   0  0  0  0  0  0  0  0  0  0  0  0
   -0.2706   -1.5467   -1.1005 C   0  0  0  0  0  0  0  0  0  0  0  0
    0.4369   -0.3914   -0.7426 C   0  0  0  0  0  0  0  0  0  0  0  0
   -0.1631    0.8431   -0.4572 C   0  0  0  0  0  0  0  0  0  0  0  0
   -1.5526    0.8959   -0.5428 C   0  0  0  0  0  0  0  0  0  0  0  0
   -2.2897   -0.2381   -0.8977 C   0  0  0  0  0  0  0  0  0  0  0  0
   -2.2383   -2.3280   -1.4502 H   0  0  0  0  0  0  0  0  0  0  0  0
    0.2570   -2.4708   -1.3094 H   0  0  0  0  0  0  0  0  0  0  0  0
    0.4674    1.6978   -0.1853 H   0  0  0  0  0  0  0  0  0  0  0  0
   -2.0591    1.8317   -0.3297 H   0  0  0  0  0  0  0  0  0  0  0  0
    1.8352   -0.4675   -0.6640 N   0  0  0  0  0  0  0  0  0  0  0  0
    2.8628   -0.0209   -0.4748 N   0  0  0  0  0  0  0  0  0  0  0  0
    2.4494    2.7665    0.2311 Cl  0  0  0  0  0  0  0  0  0  0  0  0
   -3.3723   -0.1756   -0.9600 H   0  0  0  0  0  0  0  0  0  0  0  0
  1  2  2  0  0  0  0
  1  6  1  0  0  0  0
  2  3  1  0  0  0  0
  3 11  1  0  0  0  0
  3  4  2  0  0  0  0
  4  9  1  0  0  0  0
  5  4  1  0  0  0  0
  5 10  1  0  0  0  0
  6  5  2  0  0  0  0
  7  1  1  0  0  0  0
  8  2  1  0  0  0  0
 11 12  2  0  0  0  0
 14  6  1  0  0  0  0
M  RAD  2  12   2  13   2
M  END
