Coordinates from ORCA-job Ph-N2-Cl-B3LYPG-6-31G_dp-scan-d09-49-n400
 OpenBabel08281820523D

 14 13  0  0  0  0  0  0  0  0999 V2000
   -1.5924   -1.4178   -1.1612 C   0  0  0  0  0  0  0  0  0  0  0  0
   -0.2130   -1.4980   -1.0834 C   0  0  0  0  0  0  0  0  0  0  0  0
    0.4871   -0.3244   -0.7223 C   0  0  0  0  0  0  0  0  0  0  0  0
   -0.1260    0.8975   -0.4421 C   0  0  0  0  0  0  0  0  0  0  0  0
   -1.5180    0.9348   -0.5320 C   0  0  0  0  0  0  0  0  0  0  0  0
   -2.2433   -0.2028   -0.8862 C   0  0  0  0  0  0  0  0  0  0  0  0
   -2.1646   -2.2976   -1.4360 H   0  0  0  0  0  0  0  0  0  0  0  0
    0.3215   -2.4193   -1.2900 H   0  0  0  0  0  0  0  0  0  0  0  0
    0.4932    1.7797   -0.1634 H   0  0  0  0  0  0  0  0  0  0  0  0
   -2.0272    1.8693   -0.3202 H   0  0  0  0  0  0  0  0  0  0  0  0
    1.8835   -0.4596   -0.6596 N   0  0  0  0  0  0  0  0  0  0  0  0
    2.8706   -1.0008   -0.7344 N   0  0  0  0  0  0  0  0  0  0  0  0
    1.8636    3.2331    0.3243 Cl  0  0  0  0  0  0  0  0  0  0  0  0
   -3.3264   -0.1541   -0.9524 H   0  0  0  0  0  0  0  0  0  0  0  0
  1  2  2  0  0  0  0
  1  6  1  0  0  0  0
  2  3  1  0  0  0  0
  3 11  1  0  0  0  0
  3  4  2  0  0  0  0
  4  9  1  0  0  0  0
  5  4  1  0  0  0  0
  5 10  1  0  0  0  0
  6  5  2  0  0  0  0
  7  1  1  0  0  0  0
  8  2  1  0  0  0  0
 12 11  1  0  0  0  0
 14  6  1  0  0  0  0
M  RAD  3  11   2  12   3  13   2
M  END
