Coordinates from ORCA-job Ph-N2-Cl-B3LYPG-6-31G_dp-scan-d09-49-n400
 OpenBabel08281820523D

 14 14  0  0  1  0  0  0  0  0999 V2000
   -1.4968   -1.0954   -1.4486 C   0  0  0  0  0  0  0  0  0  0  0  0
   -0.1496   -1.2773   -1.4382 C   0  0  0  0  0  0  0  0  0  0  0  0
    0.6630   -0.3436   -0.6901 C   0  0  1  0  0  0  0  0  0  0  0  0
    0.1261    0.9363   -0.2299 C   0  0  2  0  0  0  0  0  0  0  0  0
   -1.3213    0.9166   -0.0754 C   0  0  0  0  0  0  0  0  0  0  0  0
   -2.0863   -0.0265   -0.6867 C   0  0  0  0  0  0  0  0  0  0  0  0
   -2.1328   -1.7799   -1.9999 H   0  0  0  0  0  0  0  0  0  0  0  0
    0.3271   -2.1143   -1.9369 H   0  0  0  0  0  0  0  0  0  0  0  0
    0.7035    1.4432    0.5340 H   0  0  0  0  0  0  0  0  0  0  0  0
   -1.7735    1.7383    0.4688 H   0  0  0  0  0  0  0  0  0  0  0  0
    1.8637   -0.7785   -0.3109 N   0  0  0  0  0  0  0  0  0  0  0  0
    2.8349   -1.2801    0.0151 N   0  0  0  0  0  0  0  0  0  0  0  0
    0.3188    2.5779   -1.6567 Cl  0  0  0  0  0  0  0  0  0  0  0  0
   -3.1681    0.0232   -0.6035 H   0  0  0  0  0  0  0  0  0  0  0  0
  1  2  2  0  0  0  0
  1  6  1  0  0  0  0
  2  3  1  0  0  0  0
  3 11  1  1  0  0  0
  3  4  1  0  0  0  0
  4  5  1  0  0  0  0
  4  9  1  1  0  0  0
  5 10  1  0  0  0  0
  6 14  1  0  0  0  0
  6  5  2  0  0  0  0
  7  1  1  0  0  0  0
  8  2  1  0  0  0  0
 11 12  1  0  0  0  0
 13  4  1  0  0  0  0
M  RAD  3   3   2  11   2  12   3
M  END
