Coordinates from ORCA-job Ph-N2-Cl-B3LYPG-6-31G_dp-scan-d09-49-n400
 OpenBabel08281820523D

 14 13  0  0  0  0  0  0  0  0999 V2000
   -1.6555   -1.4495   -1.1735 C   0  0  0  0  0  0  0  0  0  0  0  0
   -0.2764   -1.5698   -1.1070 C   0  0  0  0  0  0  0  0  0  0  0  0
    0.4495   -0.4202   -0.7502 C   0  0  0  0  0  0  0  0  0  0  0  0
   -0.1185    0.8301   -0.4588 C   0  0  0  0  0  0  0  0  0  0  0  0
   -1.5084    0.9039   -0.5383 C   0  0  0  0  0  0  0  0  0  0  0  0
   -2.2657   -0.2162   -0.8900 C   0  0  0  0  0  0  0  0  0  0  0  0
   -2.2593   -2.3086   -1.4449 H   0  0  0  0  0  0  0  0  0  0  0  0
    0.2319   -2.5039   -1.3195 H   0  0  0  0  0  0  0  0  0  0  0  0
    0.5344    1.6842   -0.1860 H   0  0  0  0  0  0  0  0  0  0  0  0
   -1.9955    1.8492   -0.3217 H   0  0  0  0  0  0  0  0  0  0  0  0
    1.8353   -0.4978   -0.6730 N   0  0  0  0  0  0  0  0  0  0  0  0
    2.9178   -0.2250   -0.5256 N   0  0  0  0  0  0  0  0  0  0  0  0
    2.1665    2.9990    0.2767 Cl  0  0  0  0  0  0  0  0  0  0  0  0
   -3.3474   -0.1353   -0.9469 H   0  0  0  0  0  0  0  0  0  0  0  0
  1  2  2  0  0  0  0
  1  6  1  0  0  0  0
  2  3  1  0  0  0  0
  3 11  1  0  0  0  0
  3  4  2  0  0  0  0
  4  9  1  0  0  0  0
  5  4  1  0  0  0  0
  5 10  1  0  0  0  0
  6  5  2  0  0  0  0
  7  1  1  0  0  0  0
  8  2  1  0  0  0  0
 11 12  1  0  0  0  0
 14  6  1  0  0  0  0
M  RAD  3  11   2  12   3  13   2
M  END
