Coordinates from ORCA-job Ph-N2-Cl-B3LYPG-6-31G_dp-scan-d09-49-n400
 OpenBabel08281820523D

 14 13  0  0  0  0  0  0  0  0999 V2000
   -1.6488   -1.4562   -1.1757 C   0  0  0  0  0  0  0  0  0  0  0  0
   -0.2635   -1.5297   -1.0955 C   0  0  0  0  0  0  0  0  0  0  0  0
    0.4346   -0.3696   -0.7366 C   0  0  0  0  0  0  0  0  0  0  0  0
   -0.1850    0.8559   -0.4547 C   0  0  0  0  0  0  0  0  0  0  0  0
   -1.5745    0.8951   -0.5442 C   0  0  0  0  0  0  0  0  0  0  0  0
   -2.2992   -0.2466   -0.9008 C   0  0  0  0  0  0  0  0  0  0  0  0
   -2.2210   -2.3355   -1.4515 H   0  0  0  0  0  0  0  0  0  0  0  0
    0.2750   -2.4481   -1.3021 H   0  0  0  0  0  0  0  0  0  0  0  0
    0.4306    1.7155   -0.1819 H   0  0  0  0  0  0  0  0  0  0  0  0
   -2.0918    1.8255   -0.3332 H   0  0  0  0  0  0  0  0  0  0  0  0
    1.8351   -0.4471   -0.6584 N   0  0  0  0  0  0  0  0  0  0  0  0
    2.8459    0.0454   -0.4586 N   0  0  0  0  0  0  0  0  0  0  0  0
    2.5537    2.6311    0.2010 Cl  0  0  0  0  0  0  0  0  0  0  0  0
   -3.3822   -0.1957   -0.9666 H   0  0  0  0  0  0  0  0  0  0  0  0
  1  2  2  0  0  0  0
  1  6  1  0  0  0  0
  2  3  1  0  0  0  0
  3 11  1  0  0  0  0
  3  4  2  0  0  0  0
  4  9  1  0  0  0  0
  5  4  1  0  0  0  0
  5 10  1  0  0  0  0
  6  5  2  0  0  0  0
  7  1  1  0  0  0  0
  8  2  1  0  0  0  0
 11 12  2  0  0  0  0
 14  6  1  0  0  0  0
M  RAD  2  12   2  13   2
M  END
