Coordinates from ORCA-job Ph-N2-Cl-B3LYPG-6-31G_dp-scan-d09-49-n400
 OpenBabel08281820523D

 14 13  0  0  0  0  0  0  0  0999 V2000
   -1.6573   -1.4515   -1.1743 C   0  0  0  0  0  0  0  0  0  0  0  0
   -0.2771   -1.5676   -1.1065 C   0  0  0  0  0  0  0  0  0  0  0  0
    0.4463   -0.4182   -0.7497 C   0  0  0  0  0  0  0  0  0  0  0  0
   -0.1255    0.8295   -0.4591 C   0  0  0  0  0  0  0  0  0  0  0  0
   -1.5152    0.9014   -0.5393 C   0  0  0  0  0  0  0  0  0  0  0  0
   -2.2704   -0.2205   -0.8915 C   0  0  0  0  0  0  0  0  0  0  0  0
   -2.2584   -2.3123   -1.4462 H   0  0  0  0  0  0  0  0  0  0  0  0
    0.2340   -2.5003   -1.3186 H   0  0  0  0  0  0  0  0  0  0  0  0
    0.5240    1.6824   -0.1869 H   0  0  0  0  0  0  0  0  0  0  0  0
   -2.0047    1.8455   -0.3231 H   0  0  0  0  0  0  0  0  0  0  0  0
    1.8359   -0.4964   -0.6723 N   0  0  0  0  0  0  0  0  0  0  0  0
    2.9053   -0.1746   -0.5129 N   0  0  0  0  0  0  0  0  0  0  0  0
    2.2239    2.9641    0.2705 Cl  0  0  0  0  0  0  0  0  0  0  0  0
   -3.3522   -0.1415   -0.9490 H   0  0  0  0  0  0  0  0  0  0  0  0
  1  2  2  0  0  0  0
  1  6  1  0  0  0  0
  2  3  1  0  0  0  0
  3 11  1  0  0  0  0
  3  4  2  0  0  0  0
  4  9  1  0  0  0  0
  5  4  1  0  0  0  0
  5 10  1  0  0  0  0
  6  5  2  0  0  0  0
  7  1  1  0  0  0  0
  8  2  1  0  0  0  0
 11 12  1  0  0  0  0
 14  6  1  0  0  0  0
M  RAD  3  11   2  12   3  13   2
M  END
