Coordinates from ORCA-job Ph-N2-Cl-B3LYPG-6-31G_dp-scan-d09-49-n400
 OpenBabel08281820523D

 14 13  0  0  0  0  0  0  0  0999 V2000
   -1.5454   -1.4130   -1.1573 C   0  0  0  0  0  0  0  0  0  0  0  0
   -0.1617   -1.3992   -1.0544 C   0  0  0  0  0  0  0  0  0  0  0  0
    0.4537   -0.1886   -0.6886 C   0  0  0  0  0  0  0  0  0  0  0  0
   -0.2463    0.9805   -0.4280 C   0  0  0  0  0  0  0  0  0  0  0  0
   -1.6368    0.9358   -0.5397 C   0  0  0  0  0  0  0  0  0  0  0  0
   -2.2819   -0.2479   -0.9007 C   0  0  0  0  0  0  0  0  0  0  0  0
   -2.0504   -2.3315   -1.4382 H   0  0  0  0  0  0  0  0  0  0  0  0
    0.4347   -2.2843   -1.2475 H   0  0  0  0  0  0  0  0  0  0  0  0
    0.3228    1.8727   -0.1499 H   0  0  0  0  0  0  0  0  0  0  0  0
   -2.2118    1.8342   -0.3419 H   0  0  0  0  0  0  0  0  0  0  0  0
    1.8895   -0.2289   -0.5966 N   0  0  0  0  0  0  0  0  0  0  0  0
    2.7587   -0.9489   -0.7255 N   0  0  0  0  0  0  0  0  0  0  0  0
    2.3479    2.6289    0.1947 Cl  0  0  0  0  0  0  0  0  0  0  0  0
   -3.3644   -0.2698   -0.9853 H   0  0  0  0  0  0  0  0  0  0  0  0
  1  2  2  0  0  0  0
  1  6  1  0  0  0  0
  2  3  1  0  0  0  0
  3 11  1  0  0  0  0
  3  4  2  0  0  0  0
  4  9  1  0  0  0  0
  5  4  1  0  0  0  0
  5 10  1  0  0  0  0
  6  5  2  0  0  0  0
  7  1  1  0  0  0  0
  8  2  1  0  0  0  0
 12 11  2  0  0  0  0
 14  6  1  0  0  0  0
M  RAD  2  12   2  13   2
M  END
