Coordinates from ORCA-job Ph-N2-Cl-B3LYPG-6-31G_dp-scan-d09-49-n400
 OpenBabel08281820513D

 14 14  0  0  0  0  0  0  0  0999 V2000
   -1.2902   -1.4350   -1.1322 C   0  0  0  0  0  0  0  0  0  0  0  0
    0.0314   -1.0624   -0.9158 C   0  0  0  0  0  0  0  0  0  0  0  0
    0.3321    0.2666   -0.5661 C   0  0  0  0  0  0  0  0  0  0  0  0
   -0.7061    1.2015   -0.4383 C   0  0  0  0  0  0  0  0  0  0  0  0
   -2.0285    0.8200   -0.6574 C   0  0  0  0  0  0  0  0  0  0  0  0
   -2.3242   -0.4989   -1.0053 C   0  0  0  0  0  0  0  0  0  0  0  0
   -1.5212   -2.4613   -1.4036 H   0  0  0  0  0  0  0  0  0  0  0  0
    0.8397   -1.7779   -1.0122 H   0  0  0  0  0  0  0  0  0  0  0  0
   -0.4479    2.2199   -0.1658 H   0  0  0  0  0  0  0  0  0  0  0  0
   -2.8259    1.5504   -0.5563 H   0  0  0  0  0  0  0  0  0  0  0  0
    1.6255    0.7755   -0.3208 N   0  0  0  0  0  0  0  0  0  0  0  0
    2.5648   -0.0862   -0.4497 N   0  0  0  0  0  0  0  0  0  0  0  0
    3.8126    0.2278   -0.2569 Cl  0  0  0  0  0  0  0  0  0  0  0  0
   -3.3533   -0.8001   -1.1784 H   0  0  0  0  0  0  0  0  0  0  0  0
  1  6  2  0  0  0  0
  1  2  1  0  0  0  0
  2  3  2  0  0  0  0
  3  4  1  0  0  0  0
  3 11  1  0  0  0  0
  4  9  1  0  0  0  0
  5 10  1  0  0  0  0
  5  4  2  0  0  0  0
  6  5  1  0  0  0  0
  7  1  1  0  0  0  0
  8  2  1  0  0  0  0
 12 11  1  0  0  0  0
 12 13  1  0  0  0  0
 14  6  1  0  0  0  0
M  RAD  2  11   2  12   2
M  END
