Coordinates from ORCA-job Ph-N2-Cl-B3LYPG-6-31G_dp-scan-d09-49-n400
 OpenBabel08281820523D

 14 13  0  0  0  0  0  0  0  0999 V2000
   -1.5346   -1.4092   -1.1563 C   0  0  0  0  0  0  0  0  0  0  0  0
   -0.1510   -1.3781   -1.0488 C   0  0  0  0  0  0  0  0  0  0  0  0
    0.4512   -0.1622   -0.6816 C   0  0  0  0  0  0  0  0  0  0  0  0
   -0.2660    0.9975   -0.4241 C   0  0  0  0  0  0  0  0  0  0  0  0
   -1.6555    0.9367   -0.5400 C   0  0  0  0  0  0  0  0  0  0  0  0
   -2.2862   -0.2541   -0.9026 C   0  0  0  0  0  0  0  0  0  0  0  0
   -2.0270   -2.3341   -1.4388 H   0  0  0  0  0  0  0  0  0  0  0  0
    0.4555   -2.2565   -1.2400 H   0  0  0  0  0  0  0  0  0  0  0  0
    0.2869    1.8953   -0.1456 H   0  0  0  0  0  0  0  0  0  0  0  0
   -2.2416    1.8285   -0.3441 H   0  0  0  0  0  0  0  0  0  0  0  0
    1.8916   -0.1889   -0.5847 N   0  0  0  0  0  0  0  0  0  0  0  0
    2.7412   -0.9336   -0.7192 N   0  0  0  0  0  0  0  0  0  0  0  0
    2.4124    2.4873    0.1572 Cl  0  0  0  0  0  0  0  0  0  0  0  0
   -3.3681   -0.2887   -0.9904 H   0  0  0  0  0  0  0  0  0  0  0  0
  1  2  2  0  0  0  0
  1  6  1  0  0  0  0
  2  3  1  0  0  0  0
  3 11  1  0  0  0  0
  3  4  2  0  0  0  0
  4  9  1  0  0  0  0
  5  4  1  0  0  0  0
  5 10  1  0  0  0  0
  6  5  2  0  0  0  0
  7  1  1  0  0  0  0
  8  2  1  0  0  0  0
 12 11  2  0  0  0  0
 14  6  1  0  0  0  0
M  RAD  2  12   2  13   2
M  END
