Coordinates from ORCA-job Ph-N2-Cl-B3LYPG-6-31G_dp-scan-d09-49-n400
 OpenBabel08281820523D

 14 13  0  0  0  0  0  0  0  0999 V2000
   -1.5627   -1.4173   -1.1594 C   0  0  0  0  0  0  0  0  0  0  0  0
   -0.1795   -1.4338   -1.0645 C   0  0  0  0  0  0  0  0  0  0  0  0
    0.4614   -0.2338   -0.6999 C   0  0  0  0  0  0  0  0  0  0  0  0
   -0.2098    0.9520   -0.4332 C   0  0  0  0  0  0  0  0  0  0  0  0
   -1.6013    0.9344   -0.5377 C   0  0  0  0  0  0  0  0  0  0  0  0
   -2.2721   -0.2354   -0.8967 C   0  0  0  0  0  0  0  0  0  0  0  0
   -2.0895   -2.3239   -1.4386 H   0  0  0  0  0  0  0  0  0  0  0  0
    0.3983   -2.3304   -1.2620 H   0  0  0  0  0  0  0  0  0  0  0  0
    0.3821    1.8375   -0.1558 H   0  0  0  0  0  0  0  0  0  0  0  0
   -2.1565    1.8444   -0.3356 H   0  0  0  0  0  0  0  0  0  0  0  0
    1.8866   -0.3029   -0.6167 N   0  0  0  0  0  0  0  0  0  0  0  0
    2.7925   -0.9744   -0.7308 N   0  0  0  0  0  0  0  0  0  0  0  0
    2.2145    2.8584    0.2476 Cl  0  0  0  0  0  0  0  0  0  0  0  0
   -3.3553   -0.2350   -0.9754 H   0  0  0  0  0  0  0  0  0  0  0  0
  1  2  2  0  0  0  0
  1  6  1  0  0  0  0
  2  3  1  0  0  0  0
  3 11  1  0  0  0  0
  3  4  2  0  0  0  0
  4  9  1  0  0  0  0
  5  4  1  0  0  0  0
  5 10  1  0  0  0  0
  6  5  2  0  0  0  0
  7  1  1  0  0  0  0
  8  2  1  0  0  0  0
 12 11  2  0  0  0  0
 14  6  1  0  0  0  0
M  RAD  2  12   2  13   2
M  END
