Coordinates from ORCA-job Ph-N2-Cl-B3LYPG-6-31G_dp-scan-d09-49-n400
 OpenBabel08281820513D

 14 14  0  0  0  0  0  0  0  0999 V2000
   -1.2914   -1.4353   -1.1324 C   0  0  0  0  0  0  0  0  0  0  0  0
    0.0305   -1.0635   -0.9161 C   0  0  0  0  0  0  0  0  0  0  0  0
    0.3316    0.2654   -0.5664 C   0  0  0  0  0  0  0  0  0  0  0  0
   -0.7058    1.2010   -0.4384 C   0  0  0  0  0  0  0  0  0  0  0  0
   -2.0285    0.8202   -0.6573 C   0  0  0  0  0  0  0  0  0  0  0  0
   -2.3248   -0.4985   -1.0053 C   0  0  0  0  0  0  0  0  0  0  0  0
   -1.5230   -2.4615   -1.4038 H   0  0  0  0  0  0  0  0  0  0  0  0
    0.8385   -1.7793   -1.0125 H   0  0  0  0  0  0  0  0  0  0  0  0
   -0.4470    2.2191   -0.1658 H   0  0  0  0  0  0  0  0  0  0  0  0
   -2.8255    1.5509   -0.5563 H   0  0  0  0  0  0  0  0  0  0  0  0
    1.6256    0.7737   -0.3211 N   0  0  0  0  0  0  0  0  0  0  0  0
    2.5636   -0.0879   -0.4505 N   0  0  0  0  0  0  0  0  0  0  0  0
    3.8191    0.2350   -0.2547 Cl  0  0  0  0  0  0  0  0  0  0  0  0
   -3.3540   -0.7992   -1.1784 H   0  0  0  0  0  0  0  0  0  0  0  0
  1  6  2  0  0  0  0
  1  2  1  0  0  0  0
  2  3  2  0  0  0  0
  3  4  1  0  0  0  0
  3 11  1  0  0  0  0
  4  9  1  0  0  0  0
  5 10  1  0  0  0  0
  5  4  2  0  0  0  0
  6  5  1  0  0  0  0
  7  1  1  0  0  0  0
  8  2  1  0  0  0  0
 12 11  1  0  0  0  0
 12 13  1  0  0  0  0
 14  6  1  0  0  0  0
M  RAD  2  11   2  12   2
M  END
