Coordinates from ORCA-job Ph-N2-Cl-B3LYPG-6-31G_dp-scan-d09-49-n400
 OpenBabel08281820523D

 14 13  0  0  0  0  0  0  0  0999 V2000
   -1.5970   -1.4177   -1.1615 C   0  0  0  0  0  0  0  0  0  0  0  0
   -0.2187   -1.5069   -1.0861 C   0  0  0  0  0  0  0  0  0  0  0  0
    0.4903   -0.3369   -0.7253 C   0  0  0  0  0  0  0  0  0  0  0  0
   -0.1152    0.8906   -0.4430 C   0  0  0  0  0  0  0  0  0  0  0  0
   -1.5071    0.9348   -0.5312 C   0  0  0  0  0  0  0  0  0  0  0  0
   -2.2397   -0.1981   -0.8847 C   0  0  0  0  0  0  0  0  0  0  0  0
   -2.1755   -2.2936   -1.4357 H   0  0  0  0  0  0  0  0  0  0  0  0
    0.3093   -2.4315   -1.2941 H   0  0  0  0  0  0  0  0  0  0  0  0
    0.5075    1.7726   -0.1641 H   0  0  0  0  0  0  0  0  0  0  0  0
   -2.0097    1.8725   -0.3181 H   0  0  0  0  0  0  0  0  0  0  0  0
    1.8800   -0.4802   -0.6653 N   0  0  0  0  0  0  0  0  0  0  0  0
    2.8871   -0.9820   -0.7283 N   0  0  0  0  0  0  0  0  0  0  0  0
    1.8199    3.2590    0.3279 Cl  0  0  0  0  0  0  0  0  0  0  0  0
   -3.3226   -0.1427   -0.9492 H   0  0  0  0  0  0  0  0  0  0  0  0
  1  2  2  0  0  0  0
  1  6  1  0  0  0  0
  2  3  1  0  0  0  0
  3 11  1  0  0  0  0
  3  4  2  0  0  0  0
  4  9  1  0  0  0  0
  5  4  1  0  0  0  0
  5 10  1  0  0  0  0
  6  5  2  0  0  0  0
  7  1  1  0  0  0  0
  8  2  1  0  0  0  0
 12 11  1  0  0  0  0
 14  6  1  0  0  0  0
M  RAD  3  11   2  12   3  13   2
M  END
