Coordinates from ORCA-job Ph-N2-Cl-B3LYPG-6-31G_dp-scan-d09-49-n400
 OpenBabel08281820523D

 14 13  0  0  0  0  0  0  0  0999 V2000
   -1.5579   -1.4162   -1.1590 C   0  0  0  0  0  0  0  0  0  0  0  0
   -0.1745   -1.4243   -1.0618 C   0  0  0  0  0  0  0  0  0  0  0  0
    0.4592   -0.2212   -0.6967 C   0  0  0  0  0  0  0  0  0  0  0  0
   -0.2200    0.9601   -0.4316 C   0  0  0  0  0  0  0  0  0  0  0  0
   -1.6113    0.9346   -0.5382 C   0  0  0  0  0  0  0  0  0  0  0  0
   -2.2749   -0.2391   -0.8979 C   0  0  0  0  0  0  0  0  0  0  0  0
   -2.0786   -2.3262   -1.4388 H   0  0  0  0  0  0  0  0  0  0  0  0
    0.4086   -2.3177   -1.2581 H   0  0  0  0  0  0  0  0  0  0  0  0
    0.3654    1.8476   -0.1540 H   0  0  0  0  0  0  0  0  0  0  0  0
   -2.1723    1.8413   -0.3373 H   0  0  0  0  0  0  0  0  0  0  0  0
    1.8876   -0.2832   -0.6112 N   0  0  0  0  0  0  0  0  0  0  0  0
    2.7819   -0.9706   -0.7300 N   0  0  0  0  0  0  0  0  0  0  0  0
    2.2535    2.8000    0.2339 Cl  0  0  0  0  0  0  0  0  0  0  0  0
   -3.3580   -0.2450   -0.9783 H   0  0  0  0  0  0  0  0  0  0  0  0
  1  2  2  0  0  0  0
  1  6  1  0  0  0  0
  2  3  1  0  0  0  0
  3 11  1  0  0  0  0
  3  4  2  0  0  0  0
  4  9  1  0  0  0  0
  5  4  1  0  0  0  0
  5 10  1  0  0  0  0
  6  5  2  0  0  0  0
  7  1  1  0  0  0  0
  8  2  1  0  0  0  0
 12 11  2  0  0  0  0
 14  6  1  0  0  0  0
M  RAD  2  12   2  13   2
M  END
