Coordinates from ORCA-job Ph-N2-Cl-B3LYPG-6-31G_dp-scan-d09-49-n400
 OpenBabel08281820523D

 14 14  0  0  0  0  0  0  0  0999 V2000
   -1.4074   -1.4636   -1.1494 C   0  0  0  0  0  0  0  0  0  0  0  0
   -0.0654   -1.1603   -0.9487 C   0  0  0  0  0  0  0  0  0  0  0  0
    0.2806    0.1528   -0.5992 C   0  0  0  0  0  0  0  0  0  0  0  0
   -0.6847    1.1506   -0.4493 C   0  0  0  0  0  0  0  0  0  0  0  0
   -2.0262    0.8310   -0.6546 C   0  0  0  0  0  0  0  0  0  0  0  0
   -2.3854   -0.4721   -1.0038 C   0  0  0  0  0  0  0  0  0  0  0  0
   -1.6946   -2.4744   -1.4214 H   0  0  0  0  0  0  0  0  0  0  0  0
    0.7070   -1.9139   -1.0573 H   0  0  0  0  0  0  0  0  0  0  0  0
   -0.3700    2.1518   -0.1762 H   0  0  0  0  0  0  0  0  0  0  0  0
   -2.7866    1.5968   -0.5417 H   0  0  0  0  0  0  0  0  0  0  0  0
    1.6354    0.5584   -0.3739 N   0  0  0  0  0  0  0  0  0  0  0  0
    2.5583   -0.1719   -0.4750 N   0  0  0  0  0  0  0  0  0  0  0  0
    4.3780    0.8747   -0.0437 Cl  0  0  0  0  0  0  0  0  0  0  0  0
   -3.4303   -0.7200   -1.1647 H   0  0  0  0  0  0  0  0  0  0  0  0
  1  6  2  0  0  0  0
  1  2  1  0  0  0  0
  2  3  2  0  0  0  0
  3  4  1  0  0  0  0
  3 11  1  0  0  0  0
  4  9  1  0  0  0  0
  5 10  1  0  0  0  0
  5  4  2  0  0  0  0
  6  5  1  0  0  0  0
  7  1  1  0  0  0  0
  8  2  1  0  0  0  0
 12 11  1  0  0  0  0
 12 13  1  0  0  0  0
 14  6  1  0  0  0  0
M  RAD  2  11   2  12   2
M  END
