Coordinates from ORCA-job Ph-N2-Cl-B3LYPG-6-31G_dp-scan-d09-49-n400
 OpenBabel08281820523D

 14 13  0  0  0  0  0  0  0  0999 V2000
   -1.5087   -1.4827   -1.1619 C   0  0  0  0  0  0  0  0  0  0  0  0
   -0.1474   -1.2644   -0.9834 C   0  0  0  0  0  0  0  0  0  0  0  0
    0.2749    0.0272   -0.6343 C   0  0  0  0  0  0  0  0  0  0  0  0
   -0.6184    1.0875   -0.4615 C   0  0  0  0  0  0  0  0  0  0  0  0
   -1.9779    0.8467   -0.6461 C   0  0  0  0  0  0  0  0  0  0  0  0
   -2.4193   -0.4323   -0.9946 C   0  0  0  0  0  0  0  0  0  0  0  0
   -1.8618   -2.4723   -1.4330 H   0  0  0  0  0  0  0  0  0  0  0  0
    0.5793   -2.0599   -1.1072 H   0  0  0  0  0  0  0  0  0  0  0  0
   -0.2392    2.0663   -0.1898 H   0  0  0  0  0  0  0  0  0  0  0  0
   -2.6897    1.6552   -0.5177 H   0  0  0  0  0  0  0  0  0  0  0  0
    1.6471    0.2984   -0.4416 N   0  0  0  0  0  0  0  0  0  0  0  0
    2.6773   -0.2134   -0.4790 N   0  0  0  0  0  0  0  0  0  0  0  0
    4.4723    1.4988    0.1296 Cl  0  0  0  0  0  0  0  0  0  0  0  0
   -3.4799   -0.6151   -1.1382 H   0  0  0  0  0  0  0  0  0  0  0  0
  1  6  2  0  0  0  0
  1  2  1  0  0  0  0
  2  3  2  0  0  0  0
  3  4  1  0  0  0  0
  3 11  1  0  0  0  0
  4  9  1  0  0  0  0
  5 10  1  0  0  0  0
  5  4  2  0  0  0  0
  6  5  1  0  0  0  0
  7  1  1  0  0  0  0
  8  2  1  0  0  0  0
 12 11  2  0  0  0  0
 14  6  1  0  0  0  0
M  RAD  2  12   2  13   2
M  END
