Coordinates from ORCA-job Ph-N2-Cl-B3LYPG-6-31G_dp-scan-d09-49-n400
 OpenBabel08281820523D

 14 13  0  0  0  0  0  0  0  0999 V2000
   -1.5281   -1.4856   -1.1621 C   0  0  0  0  0  0  0  0  0  0  0  0
   -0.1626   -1.2894   -0.9918 C   0  0  0  0  0  0  0  0  0  0  0  0
    0.2820   -0.0040   -0.6446 C   0  0  0  0  0  0  0  0  0  0  0  0
   -0.5933    1.0713   -0.4656 C   0  0  0  0  0  0  0  0  0  0  0  0
   -1.9569    0.8515   -0.6431 C   0  0  0  0  0  0  0  0  0  0  0  0
   -2.4205   -0.4206   -0.9894 C   0  0  0  0  0  0  0  0  0  0  0  0
   -1.8986   -2.4694   -1.4313 H   0  0  0  0  0  0  0  0  0  0  0  0
    0.5509   -2.0960   -1.1200 H   0  0  0  0  0  0  0  0  0  0  0  0
   -0.1968    2.0435   -0.1951 H   0  0  0  0  0  0  0  0  0  0  0  0
   -2.6553    1.6709   -0.5105 H   0  0  0  0  0  0  0  0  0  0  0  0
    1.6543    0.2388   -0.4611 N   0  0  0  0  0  0  0  0  0  0  0  0
    2.7084   -0.2139   -0.4896 N   0  0  0  0  0  0  0  0  0  0  0  0
    4.4099    1.6291    0.1724 Cl  0  0  0  0  0  0  0  0  0  0  0  0
   -3.4846   -0.5862   -1.1269 H   0  0  0  0  0  0  0  0  0  0  0  0
  1  2  2  0  0  0  0
  1  6  1  0  0  0  0
  2  3  1  0  0  0  0
  3  4  2  0  0  0  0
  3 11  1  0  0  0  0
  4  9  1  0  0  0  0
  5 10  1  0  0  0  0
  5  4  1  0  0  0  0
  6  5  2  0  0  0  0
  7  1  1  0  0  0  0
  8  2  1  0  0  0  0
 12 11  2  0  0  0  0
 14  6  1  0  0  0  0
M  RAD  2  12   2  13   2
M  END
