Coordinates from ORCA-job Ph-N2-Cl-B3LYPG-6-31G_dp-scan-d09-49-n400
 OpenBabel08281820523D

 14 13  0  0  0  0  0  0  0  0999 V2000
   -1.5736   -1.4187   -1.1603 C   0  0  0  0  0  0  0  0  0  0  0  0
   -0.1912   -1.4566   -1.0711 C   0  0  0  0  0  0  0  0  0  0  0  0
    0.4687   -0.2648   -0.7079 C   0  0  0  0  0  0  0  0  0  0  0  0
   -0.1826    0.9328   -0.4369 C   0  0  0  0  0  0  0  0  0  0  0  0
   -1.5745    0.9341   -0.5362 C   0  0  0  0  0  0  0  0  0  0  0  0
   -2.2636   -0.2255   -0.8935 C   0  0  0  0  0  0  0  0  0  0  0  0
   -2.1158   -2.3167   -1.4378 H   0  0  0  0  0  0  0  0  0  0  0  0
    0.3728   -2.3614   -1.2715 H   0  0  0  0  0  0  0  0  0  0  0  0
    0.4212    1.8156   -0.1594 H   0  0  0  0  0  0  0  0  0  0  0  0
   -2.1149    1.8523   -0.3310 H   0  0  0  0  0  0  0  0  0  0  0  0
    1.8856   -0.3550   -0.6313 N   0  0  0  0  0  0  0  0  0  0  0  0
    2.8175   -0.9888   -0.7338 N   0  0  0  0  0  0  0  0  0  0  0  0
    2.1062    3.0017    0.2798 Cl  0  0  0  0  0  0  0  0  0  0  0  0
   -3.3471   -0.2089   -0.9679 H   0  0  0  0  0  0  0  0  0  0  0  0
  1  2  2  0  0  0  0
  1  6  1  0  0  0  0
  2  3  1  0  0  0  0
  3 11  1  0  0  0  0
  3  4  2  0  0  0  0
  4  9  1  0  0  0  0
  5  4  1  0  0  0  0
  5 10  1  0  0  0  0
  6  5  2  0  0  0  0
  7  1  1  0  0  0  0
  8  2  1  0  0  0  0
 12 11  2  0  0  0  0
 14  6  1  0  0  0  0
M  RAD  2  12   2  13   2
M  END
