Coordinates from ORCA-job Ph-N2-Cl-B3LYPG-6-31G_dp-scan-d09-49-n400
 OpenBabel08281820523D

 14 13  0  0  0  0  0  0  0  0999 V2000
   -1.6574   -1.4517   -1.1744 C   0  0  0  0  0  0  0  0  0  0  0  0
   -0.2771   -1.5675   -1.1065 C   0  0  0  0  0  0  0  0  0  0  0  0
    0.4460   -0.4180   -0.7497 C   0  0  0  0  0  0  0  0  0  0  0  0
   -0.1262    0.8294   -0.4592 C   0  0  0  0  0  0  0  0  0  0  0  0
   -1.5159    0.9011   -0.5394 C   0  0  0  0  0  0  0  0  0  0  0  0
   -2.2709   -0.2209   -0.8916 C   0  0  0  0  0  0  0  0  0  0  0  0
   -2.2582   -2.3127   -1.4464 H   0  0  0  0  0  0  0  0  0  0  0  0
    0.2342   -2.5000   -1.3185 H   0  0  0  0  0  0  0  0  0  0  0  0
    0.5231    1.6822   -0.1869 H   0  0  0  0  0  0  0  0  0  0  0  0
   -2.0057    1.8452   -0.3232 H   0  0  0  0  0  0  0  0  0  0  0  0
    1.8360   -0.4960   -0.6721 N   0  0  0  0  0  0  0  0  0  0  0  0
    2.9041   -0.1697   -0.5117 N   0  0  0  0  0  0  0  0  0  0  0  0
    2.2293    2.9604    0.2698 Cl  0  0  0  0  0  0  0  0  0  0  0  0
   -3.3527   -0.1420   -0.9492 H   0  0  0  0  0  0  0  0  0  0  0  0
  1  2  2  0  0  0  0
  1  6  1  0  0  0  0
  2  3  1  0  0  0  0
  3 11  1  0  0  0  0
  3  4  2  0  0  0  0
  4  9  1  0  0  0  0
  5  4  1  0  0  0  0
  5 10  1  0  0  0  0
  6  5  2  0  0  0  0
  7  1  1  0  0  0  0
  8  2  1  0  0  0  0
 11 12  1  0  0  0  0
 14  6  1  0  0  0  0
M  RAD  3  11   2  12   3  13   2
M  END
