Coordinates from ORCA-job Ph-N2-Cl-B3LYPG-6-31G_dp-scan-d09-49-n400
 OpenBabel08281820523D

 14 13  0  0  0  0  0  0  0  0999 V2000
   -1.5724   -1.4185   -1.1601 C   0  0  0  0  0  0  0  0  0  0  0  0
   -0.1900   -1.4543   -1.0705 C   0  0  0  0  0  0  0  0  0  0  0  0
    0.4684   -0.2619   -0.7071 C   0  0  0  0  0  0  0  0  0  0  0  0
   -0.1849    0.9348   -0.4364 C   0  0  0  0  0  0  0  0  0  0  0  0
   -1.5769    0.9341   -0.5364 C   0  0  0  0  0  0  0  0  0  0  0  0
   -2.2642   -0.2264   -0.8938 C   0  0  0  0  0  0  0  0  0  0  0  0
   -2.1131   -2.3174   -1.4379 H   0  0  0  0  0  0  0  0  0  0  0  0
    0.3753   -2.3584   -1.2706 H   0  0  0  0  0  0  0  0  0  0  0  0
    0.4170    1.8186   -0.1589 H   0  0  0  0  0  0  0  0  0  0  0  0
   -2.1188    1.8514   -0.3315 H   0  0  0  0  0  0  0  0  0  0  0  0
    1.8861   -0.3513   -0.6302 N   0  0  0  0  0  0  0  0  0  0  0  0
    2.8142   -0.9909   -0.7345 N   0  0  0  0  0  0  0  0  0  0  0  0
    2.1158    2.9917    0.2776 Cl  0  0  0  0  0  0  0  0  0  0  0  0
   -3.3477   -0.2115   -0.9687 H   0  0  0  0  0  0  0  0  0  0  0  0
  1  2  2  0  0  0  0
  1  6  1  0  0  0  0
  2  3  1  0  0  0  0
  3 11  1  0  0  0  0
  3  4  2  0  0  0  0
  4  9  1  0  0  0  0
  5  4  1  0  0  0  0
  5 10  1  0  0  0  0
  6  5  2  0  0  0  0
  7  1  1  0  0  0  0
  8  2  1  0  0  0  0
 12 11  2  0  0  0  0
 14  6  1  0  0  0  0
M  RAD  2  12   2  13   2
M  END
