Coordinates from ORCA-job Ph-N2-Cl-B3LYPG-6-31G_dp-scan-d09-49-n400
 OpenBabel08281820523D

 14 14  0  0  0  0  0  0  0  0999 V2000
   -1.4033   -1.4627   -1.1488 C   0  0  0  0  0  0  0  0  0  0  0  0
   -0.0620   -1.1567   -0.9473 C   0  0  0  0  0  0  0  0  0  0  0  0
    0.2819    0.1569   -0.5977 C   0  0  0  0  0  0  0  0  0  0  0  0
   -0.6861    1.1525   -0.4488 C   0  0  0  0  0  0  0  0  0  0  0  0
   -2.0268    0.8305   -0.6549 C   0  0  0  0  0  0  0  0  0  0  0  0
   -2.3835   -0.4732   -1.0041 C   0  0  0  0  0  0  0  0  0  0  0  0
   -1.6884   -2.4741   -1.4209 H   0  0  0  0  0  0  0  0  0  0  0  0
    0.7117   -1.9091   -1.0553 H   0  0  0  0  0  0  0  0  0  0  0  0
   -0.3734    2.1544   -0.1756 H   0  0  0  0  0  0  0  0  0  0  0  0
   -2.7888    1.5950   -0.5425 H   0  0  0  0  0  0  0  0  0  0  0  0
    1.6352    0.5679   -0.3711 N   0  0  0  0  0  0  0  0  0  0  0  0
    2.5542   -0.1703   -0.4751 N   0  0  0  0  0  0  0  0  0  0  0  0
    4.3659    0.8521   -0.0511 Cl  0  0  0  0  0  0  0  0  0  0  0  0
   -3.4278   -0.7231   -1.1657 H   0  0  0  0  0  0  0  0  0  0  0  0
  1  6  2  0  0  0  0
  1  2  1  0  0  0  0
  2  3  2  0  0  0  0
  3  4  1  0  0  0  0
  3 11  1  0  0  0  0
  4  9  1  0  0  0  0
  5 10  1  0  0  0  0
  5  4  2  0  0  0  0
  6  5  1  0  0  0  0
  7  1  1  0  0  0  0
  8  2  1  0  0  0  0
 12 11  1  0  0  0  0
 12 13  1  0  0  0  0
 14  6  1  0  0  0  0
M  RAD  2  11   2  12   2
M  END
