Coordinates from ORCA-job Ph-N2-Cl-B3LYPG-6-31G_dp-scan-d09-49-n400
 OpenBabel08281820523D

 14 13  0  0  0  0  0  0  0  0999 V2000
   -1.6336   -1.4158   -1.1662 C   0  0  0  0  0  0  0  0  0  0  0  0
   -0.2644   -1.5808   -1.1112 C   0  0  0  0  0  0  0  0  0  0  0  0
    0.5079   -0.4460   -0.7511 C   0  0  0  0  0  0  0  0  0  0  0  0
   -0.0299    0.8213   -0.4502 C   0  0  0  0  0  0  0  0  0  0  0  0
   -1.4186    0.9297   -0.5229 C   0  0  0  0  0  0  0  0  0  0  0  0
   -2.2103   -0.1631   -0.8729 C   0  0  0  0  0  0  0  0  0  0  0  0
   -2.2632   -2.2565   -1.4373 H   0  0  0  0  0  0  0  0  0  0  0  0
    0.2111   -2.5299   -1.3326 H   0  0  0  0  0  0  0  0  0  0  0  0
    0.6071    1.6961   -0.1717 H   0  0  0  0  0  0  0  0  0  0  0  0
   -1.8639    1.8935   -0.2974 H   0  0  0  0  0  0  0  0  0  0  0  0
    1.8669   -0.6053   -0.6953 N   0  0  0  0  0  0  0  0  0  0  0  0
    2.9750   -0.7809   -0.6636 N   0  0  0  0  0  0  0  0  0  0  0  0
    1.5143    3.4314    0.3364 Cl  0  0  0  0  0  0  0  0  0  0  0  0
   -3.2898   -0.0537   -0.9228 H   0  0  0  0  0  0  0  0  0  0  0  0
  1  2  2  0  0  0  0
  1  6  1  0  0  0  0
  2  3  1  0  0  0  0
  3 11  1  0  0  0  0
  3  4  2  0  0  0  0
  4  9  1  0  0  0  0
  5  4  1  0  0  0  0
  5 10  1  0  0  0  0
  6  5  2  0  0  0  0
  7  1  1  0  0  0  0
  8  2  1  0  0  0  0
 11 12  1  0  0  0  0
 14  6  1  0  0  0  0
M  RAD  3  11   2  12   3  13   2
M  END
