Coordinates from ORCA-job Ph-N2-Cl-B3LYPG-6-31G_dp-scan-d09-49-n400
 OpenBabel08281820523D

 14 13  0  0  0  0  0  0  0  0999 V2000
   -1.5639   -1.4175   -1.1595 C   0  0  0  0  0  0  0  0  0  0  0  0
   -0.1808   -1.4363   -1.0652 C   0  0  0  0  0  0  0  0  0  0  0  0
    0.4621   -0.2371   -0.7008 C   0  0  0  0  0  0  0  0  0  0  0  0
   -0.2069    0.9500   -0.4336 C   0  0  0  0  0  0  0  0  0  0  0  0
   -1.5985    0.9344   -0.5376 C   0  0  0  0  0  0  0  0  0  0  0  0
   -2.2712   -0.2344   -0.8964 C   0  0  0  0  0  0  0  0  0  0  0  0
   -2.0924   -2.3232   -1.4385 H   0  0  0  0  0  0  0  0  0  0  0  0
    0.3956   -2.3338   -1.2630 H   0  0  0  0  0  0  0  0  0  0  0  0
    0.3863    1.8351   -0.1562 H   0  0  0  0  0  0  0  0  0  0  0  0
   -2.1522    1.8452   -0.3352 H   0  0  0  0  0  0  0  0  0  0  0  0
    1.8865   -0.3084   -0.6183 N   0  0  0  0  0  0  0  0  0  0  0  0
    2.7951   -0.9761   -0.7312 N   0  0  0  0  0  0  0  0  0  0  0  0
    2.2036    2.8745    0.2514 Cl  0  0  0  0  0  0  0  0  0  0  0  0
   -3.3545   -0.2323   -0.9747 H   0  0  0  0  0  0  0  0  0  0  0  0
  1  2  2  0  0  0  0
  1  6  1  0  0  0  0
  2  3  1  0  0  0  0
  3 11  1  0  0  0  0
  3  4  2  0  0  0  0
  4  9  1  0  0  0  0
  5  4  1  0  0  0  0
  5 10  1  0  0  0  0
  6  5  2  0  0  0  0
  7  1  1  0  0  0  0
  8  2  1  0  0  0  0
 12 11  2  0  0  0  0
 14  6  1  0  0  0  0
M  RAD  2  12   2  13   2
M  END
