Coordinates from ORCA-job Ph-N2-Cl-B3LYPG-6-31G_dp-scan-d09-49-n400
 OpenBabel08281820523D

 14 13  0  0  0  0  0  0  0  0999 V2000
   -1.6494   -1.4563   -1.1758 C   0  0  0  0  0  0  0  0  0  0  0  0
   -0.2643   -1.5314   -1.0960 C   0  0  0  0  0  0  0  0  0  0  0  0
    0.4347   -0.3717   -0.7372 C   0  0  0  0  0  0  0  0  0  0  0  0
   -0.1831    0.8546   -0.4549 C   0  0  0  0  0  0  0  0  0  0  0  0
   -1.5726    0.8951   -0.5441 C   0  0  0  0  0  0  0  0  0  0  0  0
   -2.2984   -0.2459   -0.9005 C   0  0  0  0  0  0  0  0  0  0  0  0
   -2.2227   -2.3349   -1.4514 H   0  0  0  0  0  0  0  0  0  0  0  0
    0.2733   -2.4503   -1.3028 H   0  0  0  0  0  0  0  0  0  0  0  0
    0.4341    1.7137   -0.1822 H   0  0  0  0  0  0  0  0  0  0  0  0
   -2.0889    1.8260   -0.3329 H   0  0  0  0  0  0  0  0  0  0  0  0
    1.8350   -0.4488   -0.6588 N   0  0  0  0  0  0  0  0  0  0  0  0
    2.8472    0.0397   -0.4600 N   0  0  0  0  0  0  0  0  0  0  0  0
    2.5452    2.6440    0.2039 Cl  0  0  0  0  0  0  0  0  0  0  0  0
   -3.3813   -0.1939   -0.9660 H   0  0  0  0  0  0  0  0  0  0  0  0
  1  2  2  0  0  0  0
  1  6  1  0  0  0  0
  2  3  1  0  0  0  0
  3 11  1  0  0  0  0
  3  4  2  0  0  0  0
  4  9  1  0  0  0  0
  5  4  1  0  0  0  0
  5 10  1  0  0  0  0
  6  5  2  0  0  0  0
  7  1  1  0  0  0  0
  8  2  1  0  0  0  0
 11 12  2  0  0  0  0
 14  6  1  0  0  0  0
M  RAD  2  12   2  13   2
M  END
