Coordinates from ORCA-job Ph-N2-Cl-B3LYPG-6-31G_dp-scan-d09-49-n400
 OpenBabel08281820523D

 14 13  0  0  0  0  0  0  0  0999 V2000
   -1.5372   -1.4103   -1.1561 C   0  0  0  0  0  0  0  0  0  0  0  0
   -0.1535   -1.3835   -1.0498 C   0  0  0  0  0  0  0  0  0  0  0  0
    0.4521   -0.1688   -0.6835 C   0  0  0  0  0  0  0  0  0  0  0  0
   -0.2608    0.9933   -0.4255 C   0  0  0  0  0  0  0  0  0  0  0  0
   -1.6506    0.9365   -0.5404 C   0  0  0  0  0  0  0  0  0  0  0  0
   -2.2850   -0.2526   -0.9022 C   0  0  0  0  0  0  0  0  0  0  0  0
   -2.0327   -2.3338   -1.4378 H   0  0  0  0  0  0  0  0  0  0  0  0
    0.4505   -2.2636   -1.2412 H   0  0  0  0  0  0  0  0  0  0  0  0
    0.2952    1.8902   -0.1469 H   0  0  0  0  0  0  0  0  0  0  0  0
   -2.2338    1.8301   -0.3443 H   0  0  0  0  0  0  0  0  0  0  0  0
    1.8918   -0.1990   -0.5883 N   0  0  0  0  0  0  0  0  0  0  0  0
    2.7436   -0.9405   -0.7235 N   0  0  0  0  0  0  0  0  0  0  0  0
    2.3963    2.5262    0.1698 Cl  0  0  0  0  0  0  0  0  0  0  0  0
   -3.3671   -0.2840   -0.9892 H   0  0  0  0  0  0  0  0  0  0  0  0
  1  2  2  0  0  0  0
  1  6  1  0  0  0  0
  2  3  1  0  0  0  0
  3 11  1  0  0  0  0
  3  4  2  0  0  0  0
  4  9  1  0  0  0  0
  5  4  1  0  0  0  0
  5 10  1  0  0  0  0
  6  5  2  0  0  0  0
  7  1  1  0  0  0  0
  8  2  1  0  0  0  0
 12 11  2  0  0  0  0
 14  6  1  0  0  0  0
M  RAD  2  12   2  13   2
M  END
