Coordinates from ORCA-job Ph-N2-Cl-B3LYPG-6-31G_dp-scan-d09-49-n400
 OpenBabel08281820523D

 14 13  0  0  0  0  0  0  0  0999 V2000
   -1.6475   -1.4560   -1.1756 C   0  0  0  0  0  0  0  0  0  0  0  0
   -0.2620   -1.5263   -1.0945 C   0  0  0  0  0  0  0  0  0  0  0  0
    0.4345   -0.3653   -0.7355 C   0  0  0  0  0  0  0  0  0  0  0  0
   -0.1889    0.8585   -0.4542 C   0  0  0  0  0  0  0  0  0  0  0  0
   -1.5784    0.8951   -0.5445 C   0  0  0  0  0  0  0  0  0  0  0  0
   -2.3008   -0.2480   -0.9013 C   0  0  0  0  0  0  0  0  0  0  0  0
   -2.2176   -2.3367   -1.4516 H   0  0  0  0  0  0  0  0  0  0  0  0
    0.2785   -2.4436   -1.3006 H   0  0  0  0  0  0  0  0  0  0  0  0
    0.4237    1.7193   -0.1813 H   0  0  0  0  0  0  0  0  0  0  0  0
   -2.0977    1.8245   -0.3339 H   0  0  0  0  0  0  0  0  0  0  0  0
    1.8352   -0.4435   -0.6574 N   0  0  0  0  0  0  0  0  0  0  0  0
    2.8434    0.0564   -0.4559 N   0  0  0  0  0  0  0  0  0  0  0  0
    2.5700    2.6047    0.1951 Cl  0  0  0  0  0  0  0  0  0  0  0  0
   -3.3838   -0.1992   -0.9676 H   0  0  0  0  0  0  0  0  0  0  0  0
  1  2  2  0  0  0  0
  1  6  1  0  0  0  0
  2  3  1  0  0  0  0
  3 11  1  0  0  0  0
  3  4  2  0  0  0  0
  4  9  1  0  0  0  0
  5  4  1  0  0  0  0
  5 10  1  0  0  0  0
  6  5  2  0  0  0  0
  7  1  1  0  0  0  0
  8  2  1  0  0  0  0
 11 12  2  0  0  0  0
 14  6  1  0  0  0  0
M  RAD  2  12   2  13   2
M  END
