Coordinates from ORCA-job Ph-N2-Cl-B3LYPG-6-31G_dp-scan-d09-49-n400
 OpenBabel08281820523D

 14 14  0  0  0  0  0  0  0  0999 V2000
   -1.3083   -1.4401   -1.1351 C   0  0  0  0  0  0  0  0  0  0  0  0
    0.0167   -1.0789   -0.9206 C   0  0  0  0  0  0  0  0  0  0  0  0
    0.3245    0.2477   -0.5708 C   0  0  0  0  0  0  0  0  0  0  0  0
   -0.7022    1.1928   -0.4397 C   0  0  0  0  0  0  0  0  0  0  0  0
   -2.0284    0.8222   -0.6569 C   0  0  0  0  0  0  0  0  0  0  0  0
   -2.3334   -0.4942   -1.0053 C   0  0  0  0  0  0  0  0  0  0  0  0
   -1.5492   -2.4639   -1.4068 H   0  0  0  0  0  0  0  0  0  0  0  0
    0.8196   -1.8001   -1.0185 H   0  0  0  0  0  0  0  0  0  0  0  0
   -0.4336    2.2082   -0.1668 H   0  0  0  0  0  0  0  0  0  0  0  0
   -2.8201    1.5582   -0.5543 H   0  0  0  0  0  0  0  0  0  0  0  0
    1.6274    0.7479   -0.3270 N   0  0  0  0  0  0  0  0  0  0  0  0
    2.5457   -0.1124   -0.4587 N   0  0  0  0  0  0  0  0  0  0  0  0
    3.9149    0.3396   -0.2212 Cl  0  0  0  0  0  0  0  0  0  0  0  0
   -3.3651   -0.7870   -1.1771 H   0  0  0  0  0  0  0  0  0  0  0  0
  1  6  2  0  0  0  0
  1  2  1  0  0  0  0
  2  3  2  0  0  0  0
  3  4  1  0  0  0  0
  3 11  1  0  0  0  0
  4  9  1  0  0  0  0
  5 10  1  0  0  0  0
  5  4  2  0  0  0  0
  6  5  1  0  0  0  0
  7  1  1  0  0  0  0
  8  2  1  0  0  0  0
 12 11  1  0  0  0  0
 12 13  1  0  0  0  0
 14  6  1  0  0  0  0
M  RAD  2  11   2  12   2
M  END
