Coordinates from ORCA-job Ph-N2-Cl-B3LYPG-6-31G_dp-scan-d09-49-n400
 OpenBabel08281820523D

 14 13  0  0  0  0  0  0  0  0999 V2000
   -1.6430   -1.4454   -1.1711 C   0  0  0  0  0  0  0  0  0  0  0  0
   -0.2655   -1.5566   -1.1026 C   0  0  0  0  0  0  0  0  0  0  0  0
    0.4540   -0.3976   -0.7445 C   0  0  0  0  0  0  0  0  0  0  0  0
   -0.1262    0.8516   -0.4546 C   0  0  0  0  0  0  0  0  0  0  0  0
   -1.5171    0.9103   -0.5377 C   0  0  0  0  0  0  0  0  0  0  0  0
   -2.2645   -0.2151   -0.8895 C   0  0  0  0  0  0  0  0  0  0  0  0
   -2.2395   -2.3095   -1.4428 H   0  0  0  0  0  0  0  0  0  0  0  0
    0.2488   -2.4877   -1.3137 H   0  0  0  0  0  0  0  0  0  0  0  0
    0.5253    1.7110   -0.1805 H   0  0  0  0  0  0  0  0  0  0  0  0
   -2.0122    1.8519   -0.3227 H   0  0  0  0  0  0  0  0  0  0  0  0
    1.8286   -0.4700   -0.6669 N   0  0  0  0  0  0  0  0  0  0  0  0
    2.9384   -0.3499   -0.5575 N   0  0  0  0  0  0  0  0  0  0  0  0
    2.1282    2.9907    0.2741 Cl  0  0  0  0  0  0  0  0  0  0  0  0
   -3.3467   -0.1437   -0.9488 H   0  0  0  0  0  0  0  0  0  0  0  0
  1  2  2  0  0  0  0
  1  6  1  0  0  0  0
  2  3  1  0  0  0  0
  3 11  1  0  0  0  0
  3  4  2  0  0  0  0
  4  9  1  0  0  0  0
  5  4  1  0  0  0  0
  5 10  1  0  0  0  0
  6  5  2  0  0  0  0
  7  1  1  0  0  0  0
  8  2  1  0  0  0  0
 11 12  1  0  0  0  0
 14  6  1  0  0  0  0
M  RAD  3  11   2  12   3  13   2
M  END
