Coordinates from ORCA-job Ph-N2-Cl-B3LYPG-6-31G_dp-scan-d09-49-n400
 OpenBabel08281820523D

 14 14  0  0  0  0  0  0  0  0999 V2000
   -1.3841   -1.4586   -1.1461 C   0  0  0  0  0  0  0  0  0  0  0  0
   -0.0462   -1.1408   -0.9407 C   0  0  0  0  0  0  0  0  0  0  0  0
    0.2888    0.1756   -0.5910 C   0  0  0  0  0  0  0  0  0  0  0  0
   -0.6911    1.1609   -0.4461 C   0  0  0  0  0  0  0  0  0  0  0  0
   -2.0289    0.8285   -0.6559 C   0  0  0  0  0  0  0  0  0  0  0  0
   -2.3739   -0.4780   -1.0054 C   0  0  0  0  0  0  0  0  0  0  0  0
   -1.6597   -2.4727   -1.4183 H   0  0  0  0  0  0  0  0  0  0  0  0
    0.7330   -1.8876   -1.0463 H   0  0  0  0  0  0  0  0  0  0  0  0
   -0.3876    2.1656   -0.1726 H   0  0  0  0  0  0  0  0  0  0  0  0
   -2.7973    1.5870   -0.5462 H   0  0  0  0  0  0  0  0  0  0  0  0
    1.6343    0.6111   -0.3586 N   0  0  0  0  0  0  0  0  0  0  0  0
    2.5370   -0.1624   -0.4763 N   0  0  0  0  0  0  0  0  0  0  0  0
    4.3002    0.7485   -0.0853 Cl  0  0  0  0  0  0  0  0  0  0  0  0
   -3.4156   -0.7371   -1.1700 H   0  0  0  0  0  0  0  0  0  0  0  0
  1  6  2  0  0  0  0
  1  2  1  0  0  0  0
  2  3  2  0  0  0  0
  3  4  1  0  0  0  0
  3 11  1  0  0  0  0
  4  9  1  0  0  0  0
  5 10  1  0  0  0  0
  5  4  2  0  0  0  0
  6  5  1  0  0  0  0
  7  1  1  0  0  0  0
  8  2  1  0  0  0  0
 12 11  1  0  0  0  0
 12 13  1  0  0  0  0
 14  6  1  0  0  0  0
M  RAD  2  11   2  12   2
M  END
