Coordinates from ORCA-job Ph-N2-Cl-B3LYPG-6-31G_dp-scan-d09-49-n400
 OpenBabel08281820513D

 14 14  0  0  0  0  0  0  0  0999 V2000
   -1.2726   -1.4297   -1.1293 C   0  0  0  0  0  0  0  0  0  0  0  0
    0.0459   -1.0461   -0.9106 C   0  0  0  0  0  0  0  0  0  0  0  0
    0.3403    0.2854   -0.5609 C   0  0  0  0  0  0  0  0  0  0  0  0
   -0.7097    1.2100   -0.4366 C   0  0  0  0  0  0  0  0  0  0  0  0
   -2.0280    0.8175   -0.6577 C   0  0  0  0  0  0  0  0  0  0  0  0
   -2.3153   -0.5036   -1.0054 C   0  0  0  0  0  0  0  0  0  0  0  0
   -1.4933   -2.4584   -1.4006 H   0  0  0  0  0  0  0  0  0  0  0  0
    0.8567   -1.7591   -1.0065 H   0  0  0  0  0  0  0  0  0  0  0  0
   -0.4624    2.2312   -0.1646 H   0  0  0  0  0  0  0  0  0  0  0  0
   -2.8306    1.5426   -0.5584 H   0  0  0  0  0  0  0  0  0  0  0  0
    1.6234    0.8046   -0.3147 N   0  0  0  0  0  0  0  0  0  0  0  0
    2.5845   -0.0608   -0.4402 N   0  0  0  0  0  0  0  0  0  0  0  0
    3.7113    0.1192   -0.2928 Cl  0  0  0  0  0  0  0  0  0  0  0  0
   -3.3416   -0.8129   -1.1804 H   0  0  0  0  0  0  0  0  0  0  0  0
  1  6  2  0  0  0  0
  1  2  1  0  0  0  0
  2  3  2  0  0  0  0
  3  4  1  0  0  0  0
  3 11  1  0  0  0  0
  4  9  1  0  0  0  0
  5 10  1  0  0  0  0
  5  4  2  0  0  0  0
  6  5  1  0  0  0  0
  7  1  1  0  0  0  0
  8  2  1  0  0  0  0
 12 11  1  0  0  0  0
 12 13  1  0  0  0  0
 14  6  1  0  0  0  0
M  RAD  2  11   2  12   2
M  END
