Coordinates from ORCA-job Ph-N2-Cl-B3LYPG-6-31G_dp-scan-d09-49-n400
 OpenBabel08281820513D

 14 14  0  0  0  0  0  0  0  0999 V2000
   -1.2422   -1.4207   -1.1245 C   0  0  0  0  0  0  0  0  0  0  0  0
    0.0712   -1.0170   -0.9024 C   0  0  0  0  0  0  0  0  0  0  0  0
    0.3546    0.3189   -0.5527 C   0  0  0  0  0  0  0  0  0  0  0  0
   -0.7156    1.2262   -0.4341 C   0  0  0  0  0  0  0  0  0  0  0  0
   -2.0254    0.8133   -0.6581 C   0  0  0  0  0  0  0  0  0  0  0  0
   -2.2985   -0.5124   -1.0052 C   0  0  0  0  0  0  0  0  0  0  0  0
   -1.4443   -2.4536   -1.3951 H   0  0  0  0  0  0  0  0  0  0  0  0
    0.8828   -1.7319   -0.9995 H   0  0  0  0  0  0  0  0  0  0  0  0
   -0.4867    2.2520   -0.1628 H   0  0  0  0  0  0  0  0  0  0  0  0
   -2.8371    1.5288   -0.5613 H   0  0  0  0  0  0  0  0  0  0  0  0
    1.6215    0.8566   -0.3037 N   0  0  0  0  0  0  0  0  0  0  0  0
    2.6112   -0.0233   -0.4268 N   0  0  0  0  0  0  0  0  0  0  0  0
    3.5374   -0.0616   -0.3503 Cl  0  0  0  0  0  0  0  0  0  0  0  0
   -3.3201   -0.8352   -1.1821 H   0  0  0  0  0  0  0  0  0  0  0  0
  1  6  2  0  0  0  0
  1  2  1  0  0  0  0
  2  3  2  0  0  0  0
  3  4  1  0  0  0  0
  3 11  1  0  0  0  0
  4  9  1  0  0  0  0
  5 10  1  0  0  0  0
  5  4  2  0  0  0  0
  6  5  1  0  0  0  0
  7  1  1  0  0  0  0
  8  2  1  0  0  0  0
 12 13  1  0  0  0  0
 12 11  1  0  0  0  0
 14  6  1  0  0  0  0
M  RAD  2  11   2  12   2
M  END
