Coordinates from ORCA-job Ph-N2-Cl-B3LYPG-6-31G_dp-scan-d09-49-n400
 OpenBabel08281820523D

 14 14  0  0  0  0  0  0  0  0999 V2000
   -1.3411   -1.4486   -1.1400 C   0  0  0  0  0  0  0  0  0  0  0  0
   -0.0104   -1.1065   -0.9289 C   0  0  0  0  0  0  0  0  0  0  0  0
    0.3094    0.2157   -0.5790 C   0  0  0  0  0  0  0  0  0  0  0  0
   -0.6971    1.1782   -0.4422 C   0  0  0  0  0  0  0  0  0  0  0  0
   -2.0288    0.8250   -0.6567 C   0  0  0  0  0  0  0  0  0  0  0  0
   -2.3508   -0.4871   -1.0058 C   0  0  0  0  0  0  0  0  0  0  0  0
   -1.5974   -2.4681   -1.4120 H   0  0  0  0  0  0  0  0  0  0  0  0
    0.7809   -1.8405   -1.0303 H   0  0  0  0  0  0  0  0  0  0  0  0
   -0.4124    2.1888   -0.1687 H   0  0  0  0  0  0  0  0  0  0  0  0
   -2.8104    1.5709   -0.5512 H   0  0  0  0  0  0  0  0  0  0  0  0
    1.6311    0.6967   -0.3376 N   0  0  0  0  0  0  0  0  0  0  0  0
    2.5223   -0.1437   -0.4719 N   0  0  0  0  0  0  0  0  0  0  0  0
    4.1005    0.5246   -0.1597 Cl  0  0  0  0  0  0  0  0  0  0  0  0
   -3.3870   -0.7653   -1.1749 H   0  0  0  0  0  0  0  0  0  0  0  0
  1  6  2  0  0  0  0
  1  2  1  0  0  0  0
  2  3  2  0  0  0  0
  3  4  1  0  0  0  0
  3 11  1  0  0  0  0
  4  9  1  0  0  0  0
  5 10  1  0  0  0  0
  5  4  2  0  0  0  0
  6  5  1  0  0  0  0
  7  1  1  0  0  0  0
  8  2  1  0  0  0  0
 12 11  1  0  0  0  0
 12 13  1  0  0  0  0
 14  6  1  0  0  0  0
M  RAD  2  11   2  12   2
M  END
