Coordinates from ORCA-job Ph-N2-Cl-B3LYPG-6-31G_dp-scan-d09-49-n400
 OpenBabel08281820523D

 14 13  0  0  0  0  0  0  0  0999 V2000
   -1.6366   -1.4069   -1.1673 C   0  0  0  0  0  0  0  0  0  0  0  0
   -0.2703   -1.5946   -1.1181 C   0  0  0  0  0  0  0  0  0  0  0  0
    0.5209   -0.4736   -0.7545 C   0  0  0  0  0  0  0  0  0  0  0  0
    0.0037    0.8000   -0.4465 C   0  0  0  0  0  0  0  0  0  0  0  0
   -1.3828    0.9327   -0.5148 C   0  0  0  0  0  0  0  0  0  0  0  0
   -2.1929   -0.1459   -0.8661 C   0  0  0  0  0  0  0  0  0  0  0  0
   -2.2806   -2.2360   -1.4404 H   0  0  0  0  0  0  0  0  0  0  0  0
    0.1894   -2.5498   -1.3465 H   0  0  0  0  0  0  0  0  0  0  0  0
    0.6388    1.6745   -0.1691 H   0  0  0  0  0  0  0  0  0  0  0  0
   -1.8056    1.9053   -0.2843 H   0  0  0  0  0  0  0  0  0  0  0  0
    1.8767   -0.6463   -0.7002 N   0  0  0  0  0  0  0  0  0  0  0  0
    2.9862   -0.8147   -0.6657 N   0  0  0  0  0  0  0  0  0  0  0  0
    1.3327    3.5149    0.3262 Cl  0  0  0  0  0  0  0  0  0  0  0  0
   -3.2707   -0.0195   -0.9115 H   0  0  0  0  0  0  0  0  0  0  0  0
  1  2  2  0  0  0  0
  1  6  1  0  0  0  0
  2  3  1  0  0  0  0
  3 11  1  0  0  0  0
  3  4  2  0  0  0  0
  4  9  1  0  0  0  0
  5  4  1  0  0  0  0
  5 10  1  0  0  0  0
  6  5  2  0  0  0  0
  7  1  1  0  0  0  0
  8  2  1  0  0  0  0
 11 12  1  0  0  0  0
 14  6  1  0  0  0  0
M  RAD  3  11   2  12   3  13   2
M  END
