Coordinates from ORCA-job Ph-N2-Cl-B3LYPG-6-31G_dp-scan-d09-49-n400
 OpenBabel08281820523D

 14 13  0  0  0  0  0  0  0  0999 V2000
   -1.6569   -1.4507   -1.1740 C   0  0  0  0  0  0  0  0  0  0  0  0
   -0.2771   -1.5688   -1.1068 C   0  0  0  0  0  0  0  0  0  0  0  0
    0.4476   -0.4195   -0.7501 C   0  0  0  0  0  0  0  0  0  0  0  0
   -0.1223    0.8293   -0.4591 C   0  0  0  0  0  0  0  0  0  0  0  0
   -1.5120    0.9022   -0.5389 C   0  0  0  0  0  0  0  0  0  0  0  0
   -2.2684   -0.2187   -0.8908 C   0  0  0  0  0  0  0  0  0  0  0  0
   -2.2592   -2.3107   -1.4457 H   0  0  0  0  0  0  0  0  0  0  0  0
    0.2328   -2.5021   -1.3191 H   0  0  0  0  0  0  0  0  0  0  0  0
    0.5285    1.6826   -0.1866 H   0  0  0  0  0  0  0  0  0  0  0  0
   -2.0004    1.8470   -0.3225 H   0  0  0  0  0  0  0  0  0  0  0  0
    1.8359   -0.4979   -0.6727 N   0  0  0  0  0  0  0  0  0  0  0  0
    2.9101   -0.1934   -0.5176 N   0  0  0  0  0  0  0  0  0  0  0  0
    2.2004    2.9795    0.2733 Cl  0  0  0  0  0  0  0  0  0  0  0  0
   -3.3502   -0.1386   -0.9480 H   0  0  0  0  0  0  0  0  0  0  0  0
  1  2  2  0  0  0  0
  1  6  1  0  0  0  0
  2  3  1  0  0  0  0
  3 11  1  0  0  0  0
  3  4  2  0  0  0  0
  4  9  1  0  0  0  0
  5  4  1  0  0  0  0
  5 10  1  0  0  0  0
  6  5  2  0  0  0  0
  7  1  1  0  0  0  0
  8  2  1  0  0  0  0
 11 12  1  0  0  0  0
 14  6  1  0  0  0  0
M  RAD  3  11   2  12   3  13   2
M  END
