Coordinates from ORCA-job Ph-N2-Cl-B3LYPG-6-31G_dp-scan-d09-49-n400
 OpenBabel08281820523D

 14 13  0  0  0  0  0  0  0  0999 V2000
   -1.6572   -1.4513   -1.1742 C   0  0  0  0  0  0  0  0  0  0  0  0
   -0.2771   -1.5680   -1.1066 C   0  0  0  0  0  0  0  0  0  0  0  0
    0.4466   -0.4186   -0.7498 C   0  0  0  0  0  0  0  0  0  0  0  0
   -0.1247    0.8294   -0.4591 C   0  0  0  0  0  0  0  0  0  0  0  0
   -1.5144    0.9016   -0.5392 C   0  0  0  0  0  0  0  0  0  0  0  0
   -2.2699   -0.2200   -0.8913 C   0  0  0  0  0  0  0  0  0  0  0  0
   -2.2586   -2.3120   -1.4461 H   0  0  0  0  0  0  0  0  0  0  0  0
    0.2337   -2.5008   -1.3187 H   0  0  0  0  0  0  0  0  0  0  0  0
    0.5251    1.6825   -0.1868 H   0  0  0  0  0  0  0  0  0  0  0  0
   -2.0037    1.8459   -0.3229 H   0  0  0  0  0  0  0  0  0  0  0  0
    1.8359   -0.4967   -0.6724 N   0  0  0  0  0  0  0  0  0  0  0  0
    2.9066   -0.1792   -0.5141 N   0  0  0  0  0  0  0  0  0  0  0  0
    2.2181    2.9681    0.2713 Cl  0  0  0  0  0  0  0  0  0  0  0  0
   -3.3518   -0.1407   -0.9487 H   0  0  0  0  0  0  0  0  0  0  0  0
  1  2  2  0  0  0  0
  1  6  1  0  0  0  0
  2  3  1  0  0  0  0
  3 11  1  0  0  0  0
  3  4  2  0  0  0  0
  4  9  1  0  0  0  0
  5  4  1  0  0  0  0
  5 10  1  0  0  0  0
  6  5  2  0  0  0  0
  7  1  1  0  0  0  0
  8  2  1  0  0  0  0
 11 12  1  0  0  0  0
 14  6  1  0  0  0  0
M  RAD  3  11   2  12   3  13   2
M  END
