Coordinates from ORCA-job Ph-N2-Cl-B3LYPG-6-31G_dp-scan-d09-49-n400
 OpenBabel08281820523D

 14 14  0  0  0  0  0  0  0  0999 V2000
   -1.3348   -1.4470   -1.1391 C   0  0  0  0  0  0  0  0  0  0  0  0
   -0.0051   -1.1014   -0.9277 C   0  0  0  0  0  0  0  0  0  0  0  0
    0.3126    0.2217   -0.5778 C   0  0  0  0  0  0  0  0  0  0  0  0
   -0.6978    1.1809   -0.4419 C   0  0  0  0  0  0  0  0  0  0  0  0
   -2.0286    0.8245   -0.6565 C   0  0  0  0  0  0  0  0  0  0  0  0
   -2.3474   -0.4884   -1.0054 C   0  0  0  0  0  0  0  0  0  0  0  0
   -1.5883   -2.4673   -1.4112 H   0  0  0  0  0  0  0  0  0  0  0  0
    0.7883   -1.8330   -1.0288 H   0  0  0  0  0  0  0  0  0  0  0  0
   -0.4159    2.1924   -0.1688 H   0  0  0  0  0  0  0  0  0  0  0  0
   -2.8121    1.5685   -0.5514 H   0  0  0  0  0  0  0  0  0  0  0  0
    1.6305    0.7075   -0.3364 N   0  0  0  0  0  0  0  0  0  0  0  0
    2.5244   -0.1402   -0.4682 N   0  0  0  0  0  0  0  0  0  0  0  0
    4.0658    0.4912   -0.1709 Cl  0  0  0  0  0  0  0  0  0  0  0  0
   -3.3828   -0.7694   -1.1749 H   0  0  0  0  0  0  0  0  0  0  0  0
  1  6  2  0  0  0  0
  1  2  1  0  0  0  0
  2  3  2  0  0  0  0
  3  4  1  0  0  0  0
  3 11  1  0  0  0  0
  4  9  1  0  0  0  0
  5 10  1  0  0  0  0
  5  4  2  0  0  0  0
  6  5  1  0  0  0  0
  7  1  1  0  0  0  0
  8  2  1  0  0  0  0
 12 11  1  0  0  0  0
 12 13  1  0  0  0  0
 14  6  1  0  0  0  0
M  RAD  2  11   2  12   2
M  END
