Coordinates from ORCA-job Ph-N2-Cl-B3LYPG-6-31G_dp-scan-d09-49-n400
 OpenBabel08281820523D

 14 14  0  0  0  0  0  0  0  0999 V2000
   -1.3593   -1.4529   -1.1426 C   0  0  0  0  0  0  0  0  0  0  0  0
   -0.0256   -1.1211   -0.9331 C   0  0  0  0  0  0  0  0  0  0  0  0
    0.3002    0.1986   -0.5831 C   0  0  0  0  0  0  0  0  0  0  0  0
   -0.6951    1.1708   -0.4432 C   0  0  0  0  0  0  0  0  0  0  0  0
   -2.0293    0.8263   -0.6566 C   0  0  0  0  0  0  0  0  0  0  0  0
   -2.3607   -0.4834   -1.0062 C   0  0  0  0  0  0  0  0  0  0  0  0
   -1.6235   -2.4702   -1.4149 H   0  0  0  0  0  0  0  0  0  0  0  0
    0.7603   -1.8609   -1.0360 H   0  0  0  0  0  0  0  0  0  0  0  0
   -0.4026    2.1789   -0.1695 H   0  0  0  0  0  0  0  0  0  0  0  0
   -2.8055    1.5776   -0.5498 H   0  0  0  0  0  0  0  0  0  0  0  0
    1.6327    0.6631   -0.3446 N   0  0  0  0  0  0  0  0  0  0  0  0
    2.5228   -0.1524   -0.4754 N   0  0  0  0  0  0  0  0  0  0  0  0
    4.1934    0.6191   -0.1295 Cl  0  0  0  0  0  0  0  0  0  0  0  0
   -3.3991   -0.7536   -1.1742 H   0  0  0  0  0  0  0  0  0  0  0  0
  1  6  2  0  0  0  0
  1  2  1  0  0  0  0
  2  3  2  0  0  0  0
  3  4  1  0  0  0  0
  3 11  1  0  0  0  0
  4  9  1  0  0  0  0
  5 10  1  0  0  0  0
  5  4  2  0  0  0  0
  6  5  1  0  0  0  0
  7  1  1  0  0  0  0
  8  2  1  0  0  0  0
 12 11  1  0  0  0  0
 12 13  1  0  0  0  0
 14  6  1  0  0  0  0
M  RAD  2  11   2  12   2
M  END
