Coordinates from ORCA-job Ph-N2-Cl-B3LYPG-6-31G_dp-scan-d09-49-n400
 OpenBabel08281820523D

 14 14  0  0  0  0  0  0  0  0999 V2000
   -1.2960   -1.4367   -1.1331 C   0  0  0  0  0  0  0  0  0  0  0  0
    0.0267   -1.0678   -0.9171 C   0  0  0  0  0  0  0  0  0  0  0  0
    0.3296    0.2605   -0.5674 C   0  0  0  0  0  0  0  0  0  0  0  0
   -0.7048    1.1987   -0.4386 C   0  0  0  0  0  0  0  0  0  0  0  0
   -2.0285    0.8208   -0.6573 C   0  0  0  0  0  0  0  0  0  0  0  0
   -2.3271   -0.4973   -1.0054 C   0  0  0  0  0  0  0  0  0  0  0  0
   -1.5301   -2.4621   -1.4046 H   0  0  0  0  0  0  0  0  0  0  0  0
    0.8336   -1.7848   -1.0137 H   0  0  0  0  0  0  0  0  0  0  0  0
   -0.4433    2.2161   -0.1659 H   0  0  0  0  0  0  0  0  0  0  0  0
   -2.8241    1.5529   -0.5559 H   0  0  0  0  0  0  0  0  0  0  0  0
    1.6260    0.7665   -0.3224 N   0  0  0  0  0  0  0  0  0  0  0  0
    2.5587   -0.0946   -0.4531 N   0  0  0  0  0  0  0  0  0  0  0  0
    3.8449    0.2636   -0.2460 Cl  0  0  0  0  0  0  0  0  0  0  0  0
   -3.3570   -0.7958   -1.1783 H   0  0  0  0  0  0  0  0  0  0  0  0
  1  6  2  0  0  0  0
  1  2  1  0  0  0  0
  2  3  2  0  0  0  0
  3  4  1  0  0  0  0
  3 11  1  0  0  0  0
  4  9  1  0  0  0  0
  5 10  1  0  0  0  0
  5  4  2  0  0  0  0
  6  5  1  0  0  0  0
  7  1  1  0  0  0  0
  8  2  1  0  0  0  0
 12 11  1  0  0  0  0
 12 13  1  0  0  0  0
 14  6  1  0  0  0  0
M  RAD  2  11   2  12   2
M  END
