Coordinates from ORCA-job Ph-N2-Cl-B3LYPG-6-31G_dp-scan-d09-49-n400
 OpenBabel08281820523D

 14 13  0  0  0  0  0  0  0  0999 V2000
   -1.5428   -1.4122   -1.1568 C   0  0  0  0  0  0  0  0  0  0  0  0
   -0.1591   -1.3942   -1.0529 C   0  0  0  0  0  0  0  0  0  0  0  0
    0.4531   -0.1822   -0.6870 C   0  0  0  0  0  0  0  0  0  0  0  0
   -0.2511    0.9847   -0.4272 C   0  0  0  0  0  0  0  0  0  0  0  0
   -1.6413    0.9361   -0.5400 C   0  0  0  0  0  0  0  0  0  0  0  0
   -2.2830   -0.2494   -0.9012 C   0  0  0  0  0  0  0  0  0  0  0  0
   -2.0448   -2.3323   -1.4379 H   0  0  0  0  0  0  0  0  0  0  0  0
    0.4398   -2.2777   -1.2454 H   0  0  0  0  0  0  0  0  0  0  0  0
    0.3144    1.8781   -0.1491 H   0  0  0  0  0  0  0  0  0  0  0  0
   -2.2190    1.8330   -0.3428 H   0  0  0  0  0  0  0  0  0  0  0  0
    1.8900   -0.2191   -0.5940 N   0  0  0  0  0  0  0  0  0  0  0  0
    2.7542   -0.9454   -0.7249 N   0  0  0  0  0  0  0  0  0  0  0  0
    2.3635    2.5952    0.1870 Cl  0  0  0  0  0  0  0  0  0  0  0  0
   -3.3653   -0.2744   -0.9866 H   0  0  0  0  0  0  0  0  0  0  0  0
  1  2  2  0  0  0  0
  1  6  1  0  0  0  0
  2  3  1  0  0  0  0
  3 11  1  0  0  0  0
  3  4  2  0  0  0  0
  4  9  1  0  0  0  0
  5  4  1  0  0  0  0
  5 10  1  0  0  0  0
  6  5  2  0  0  0  0
  7  1  1  0  0  0  0
  8  2  1  0  0  0  0
 12 11  2  0  0  0  0
 14  6  1  0  0  0  0
M  RAD  2  12   2  13   2
M  END
