Coordinates from ORCA-job Ph-N2-Cl-B3LYPG-6-31G_dp-scan-d09-49-n400
 OpenBabel08281820523D

 14 14  0  0  0  0  0  0  0  0999 V2000
   -1.3687   -1.4551   -1.1439 C   0  0  0  0  0  0  0  0  0  0  0  0
   -0.0334   -1.1284   -0.9358 C   0  0  0  0  0  0  0  0  0  0  0  0
    0.2955    0.1900   -0.5859 C   0  0  0  0  0  0  0  0  0  0  0  0
   -0.6939    1.1672   -0.4442 C   0  0  0  0  0  0  0  0  0  0  0  0
   -2.0294    0.8271   -0.6565 C   0  0  0  0  0  0  0  0  0  0  0  0
   -2.3658   -0.4814   -1.0061 C   0  0  0  0  0  0  0  0  0  0  0  0
   -1.6371   -2.4713   -1.4161 H   0  0  0  0  0  0  0  0  0  0  0  0
    0.7499   -1.8709   -1.0395 H   0  0  0  0  0  0  0  0  0  0  0  0
   -0.3973    2.1739   -0.1705 H   0  0  0  0  0  0  0  0  0  0  0  0
   -2.8027    1.5810   -0.5487 H   0  0  0  0  0  0  0  0  0  0  0  0
    1.6333    0.6439   -0.3493 N   0  0  0  0  0  0  0  0  0  0  0  0
    2.5268   -0.1561   -0.4770 N   0  0  0  0  0  0  0  0  0  0  0  0
    4.2367    0.6675   -0.1125 Cl  0  0  0  0  0  0  0  0  0  0  0  0
   -3.4054   -0.7475   -1.1729 H   0  0  0  0  0  0  0  0  0  0  0  0
  1  6  2  0  0  0  0
  1  2  1  0  0  0  0
  2  3  2  0  0  0  0
  3  4  1  0  0  0  0
  3 11  1  0  0  0  0
  4  9  1  0  0  0  0
  5 10  1  0  0  0  0
  5  4  2  0  0  0  0
  6  5  1  0  0  0  0
  7  1  1  0  0  0  0
  8  2  1  0  0  0  0
 12 11  1  0  0  0  0
 12 13  1  0  0  0  0
 14  6  1  0  0  0  0
M  RAD  2  11   2  12   2
M  END
