Coordinates from ORCA-job Ph-N2-Cl-B3LYPG-6-31G_dp-scan-d09-49-n400
 OpenBabel08281820523D

 14 13  0  0  0  0  0  0  0  0999 V2000
   -1.6571   -1.4510   -1.1741 C   0  0  0  0  0  0  0  0  0  0  0  0
   -0.2772   -1.5687   -1.1068 C   0  0  0  0  0  0  0  0  0  0  0  0
    0.4473   -0.4195   -0.7501 C   0  0  0  0  0  0  0  0  0  0  0  0
   -0.1229    0.8291   -0.4591 C   0  0  0  0  0  0  0  0  0  0  0  0
   -1.5127    0.9020   -0.5390 C   0  0  0  0  0  0  0  0  0  0  0  0
   -2.2689   -0.2191   -0.8910 C   0  0  0  0  0  0  0  0  0  0  0  0
   -2.2592   -2.3111   -1.4459 H   0  0  0  0  0  0  0  0  0  0  0  0
    0.2329   -2.5019   -1.3190 H   0  0  0  0  0  0  0  0  0  0  0  0
    0.5276    1.6823   -0.1867 H   0  0  0  0  0  0  0  0  0  0  0  0
   -2.0012    1.8466   -0.3226 H   0  0  0  0  0  0  0  0  0  0  0  0
    1.8360   -0.4976   -0.6726 N   0  0  0  0  0  0  0  0  0  0  0  0
    2.9089   -0.1882   -0.5163 N   0  0  0  0  0  0  0  0  0  0  0  0
    2.2058    2.9761    0.2727 Cl  0  0  0  0  0  0  0  0  0  0  0  0
   -3.3507   -0.1391   -0.9482 H   0  0  0  0  0  0  0  0  0  0  0  0
  1  2  2  0  0  0  0
  1  6  1  0  0  0  0
  2  3  1  0  0  0  0
  3 11  1  0  0  0  0
  3  4  2  0  0  0  0
  4  9  1  0  0  0  0
  5  4  1  0  0  0  0
  5 10  1  0  0  0  0
  6  5  2  0  0  0  0
  7  1  1  0  0  0  0
  8  2  1  0  0  0  0
 11 12  1  0  0  0  0
 14  6  1  0  0  0  0
M  RAD  3  11   2  12   3  13   2
M  END
