Coordinates from ORCA-job Ph-N2-Cl-B3LYPG-6-31G_dp-scan-d09-49-n400
 OpenBabel08281820523D

 14 13  0  0  0  0  0  0  0  0999 V2000
   -1.6572   -1.4544   -1.1753 C   0  0  0  0  0  0  0  0  0  0  0  0
   -0.2750   -1.5586   -1.1039 C   0  0  0  0  0  0  0  0  0  0  0  0
    0.4410   -0.4069   -0.7468 C   0  0  0  0  0  0  0  0  0  0  0  0
   -0.1437    0.8346   -0.4585 C   0  0  0  0  0  0  0  0  0  0  0  0
   -1.5333    0.8979   -0.5412 C   0  0  0  0  0  0  0  0  0  0  0  0
   -2.2804   -0.2296   -0.8947 C   0  0  0  0  0  0  0  0  0  0  0  0
   -2.2502   -2.3205   -1.4484 H   0  0  0  0  0  0  0  0  0  0  0  0
    0.2439   -2.4873   -1.3145 H   0  0  0  0  0  0  0  0  0  0  0  0
    0.4967    1.6875   -0.1867 H   0  0  0  0  0  0  0  0  0  0  0  0
   -2.0308    1.8382   -0.3265 H   0  0  0  0  0  0  0  0  0  0  0  0
    1.8359   -0.4847   -0.6689 N   0  0  0  0  0  0  0  0  0  0  0  0
    2.8829   -0.0920   -0.4925 N   0  0  0  0  0  0  0  0  0  0  0  0
    2.3414    2.8735    0.2535 Cl  0  0  0  0  0  0  0  0  0  0  0  0
   -3.3626   -0.1579   -0.9544 H   0  0  0  0  0  0  0  0  0  0  0  0
  1  2  2  0  0  0  0
  1  6  1  0  0  0  0
  2  3  1  0  0  0  0
  3 11  1  0  0  0  0
  3  4  2  0  0  0  0
  4  9  1  0  0  0  0
  5  4  1  0  0  0  0
  5 10  1  0  0  0  0
  6  5  2  0  0  0  0
  7  1  1  0  0  0  0
  8  2  1  0  0  0  0
 11 12  1  0  0  0  0
 14  6  1  0  0  0  0
M  RAD  3  11   2  12   3  13   2
M  END
