Coordinates from ORCA-job Ph-N2-Cl-B3LYPG-6-31G_dp-scan-d09-49-n400
 OpenBabel08281820523D

 14 13  0  0  0  0  0  0  0  0999 V2000
   -1.5455   -1.4130   -1.1573 C   0  0  0  0  0  0  0  0  0  0  0  0
   -0.1619   -1.3997   -1.0545 C   0  0  0  0  0  0  0  0  0  0  0  0
    0.4542   -0.1892   -0.6887 C   0  0  0  0  0  0  0  0  0  0  0  0
   -0.2455    0.9803   -0.4280 C   0  0  0  0  0  0  0  0  0  0  0  0
   -1.6360    0.9357   -0.5397 C   0  0  0  0  0  0  0  0  0  0  0  0
   -2.2816   -0.2477   -0.9006 C   0  0  0  0  0  0  0  0  0  0  0  0
   -2.0508   -2.3314   -1.4382 H   0  0  0  0  0  0  0  0  0  0  0  0
    0.4343   -2.2849   -1.2477 H   0  0  0  0  0  0  0  0  0  0  0  0
    0.3231    1.8729   -0.1499 H   0  0  0  0  0  0  0  0  0  0  0  0
   -2.2108    1.8343   -0.3418 H   0  0  0  0  0  0  0  0  0  0  0  0
    1.8898   -0.2311   -0.5971 N   0  0  0  0  0  0  0  0  0  0  0  0
    2.7582   -0.9521   -0.7264 N   0  0  0  0  0  0  0  0  0  0  0  0
    2.3452    2.6353    0.1962 Cl  0  0  0  0  0  0  0  0  0  0  0  0
   -3.3641   -0.2693   -0.9852 H   0  0  0  0  0  0  0  0  0  0  0  0
  1  2  2  0  0  0  0
  1  6  1  0  0  0  0
  2  3  1  0  0  0  0
  3 11  1  0  0  0  0
  3  4  2  0  0  0  0
  4  9  1  0  0  0  0
  5  4  1  0  0  0  0
  5 10  1  0  0  0  0
  6  5  2  0  0  0  0
  7  1  1  0  0  0  0
  8  2  1  0  0  0  0
 12 11  2  0  0  0  0
 14  6  1  0  0  0  0
M  RAD  2  12   2  13   2
M  END
