Coordinates from ORCA-job Ph-N2-Cl-B3LYPG-6-31G_dp-scan-d09-49-n400
 OpenBabel08281820523D

 14 13  0  0  0  0  0  0  0  0999 V2000
   -1.5591   -1.4165   -1.1591 C   0  0  0  0  0  0  0  0  0  0  0  0
   -0.1758   -1.4268   -1.0625 C   0  0  0  0  0  0  0  0  0  0  0  0
    0.4599   -0.2245   -0.6975 C   0  0  0  0  0  0  0  0  0  0  0  0
   -0.2173    0.9580   -0.4320 C   0  0  0  0  0  0  0  0  0  0  0  0
   -1.6087    0.9346   -0.5381 C   0  0  0  0  0  0  0  0  0  0  0  0
   -2.2741   -0.2382   -0.8976 C   0  0  0  0  0  0  0  0  0  0  0  0
   -2.0815   -2.3256   -1.4387 H   0  0  0  0  0  0  0  0  0  0  0  0
    0.4059   -2.3210   -1.2591 H   0  0  0  0  0  0  0  0  0  0  0  0
    0.3697    1.8451   -0.1545 H   0  0  0  0  0  0  0  0  0  0  0  0
   -2.1682    1.8421   -0.3368 H   0  0  0  0  0  0  0  0  0  0  0  0
    1.8874   -0.2886   -0.6127 N   0  0  0  0  0  0  0  0  0  0  0  0
    2.7844   -0.9724   -0.7304 N   0  0  0  0  0  0  0  0  0  0  0  0
    2.2432    2.8162    0.2377 Cl  0  0  0  0  0  0  0  0  0  0  0  0
   -3.3573   -0.2424   -0.9775 H   0  0  0  0  0  0  0  0  0  0  0  0
  1  2  2  0  0  0  0
  1  6  1  0  0  0  0
  2  3  1  0  0  0  0
  3 11  1  0  0  0  0
  3  4  2  0  0  0  0
  4  9  1  0  0  0  0
  5  4  1  0  0  0  0
  5 10  1  0  0  0  0
  6  5  2  0  0  0  0
  7  1  1  0  0  0  0
  8  2  1  0  0  0  0
 12 11  2  0  0  0  0
 14  6  1  0  0  0  0
M  RAD  2  12   2  13   2
M  END
