Coordinates from ORCA-job Ph-N2-Cl-B3LYPG-6-31G_dp-scan-d09-49-n400
 OpenBabel08281820523D

 14 14  0  0  0  0  0  0  0  0999 V2000
   -1.3506   -1.4509   -1.1413 C   0  0  0  0  0  0  0  0  0  0  0  0
   -0.0183   -1.1142   -0.9308 C   0  0  0  0  0  0  0  0  0  0  0  0
    0.3046    0.2067   -0.5808 C   0  0  0  0  0  0  0  0  0  0  0  0
   -0.6961    1.1743   -0.4425 C   0  0  0  0  0  0  0  0  0  0  0  0
   -2.0291    0.8257   -0.6568 C   0  0  0  0  0  0  0  0  0  0  0  0
   -2.3560   -0.4851   -1.0062 C   0  0  0  0  0  0  0  0  0  0  0  0
   -1.6111   -2.4692   -1.4135 H   0  0  0  0  0  0  0  0  0  0  0  0
    0.7700   -1.8514   -1.0329 H   0  0  0  0  0  0  0  0  0  0  0  0
   -0.4073    2.1835   -0.1688 H   0  0  0  0  0  0  0  0  0  0  0  0
   -2.8078    1.5744   -0.5507 H   0  0  0  0  0  0  0  0  0  0  0  0
    1.6320    0.6797   -0.3407 N   0  0  0  0  0  0  0  0  0  0  0  0
    2.5214   -0.1485   -0.4744 N   0  0  0  0  0  0  0  0  0  0  0  0
    4.1502    0.5742   -0.1444 Cl  0  0  0  0  0  0  0  0  0  0  0  0
   -3.3933   -0.7591   -1.1750 H   0  0  0  0  0  0  0  0  0  0  0  0
  1  6  2  0  0  0  0
  1  2  1  0  0  0  0
  2  3  2  0  0  0  0
  3  4  1  0  0  0  0
  3 11  1  0  0  0  0
  4  9  1  0  0  0  0
  5 10  1  0  0  0  0
  5  4  2  0  0  0  0
  6  5  1  0  0  0  0
  7  1  1  0  0  0  0
  8  2  1  0  0  0  0
 12 11  1  0  0  0  0
 12 13  1  0  0  0  0
 14  6  1  0  0  0  0
M  RAD  2  11   2  12   2
M  END
