Coordinates from ORCA-job Ph-N2-Cl-B3LYPG-6-31G_dp-scan-d09-49-n400
 OpenBabel08281820523D

 14 13  0  0  0  0  0  0  0  0999 V2000
   -1.5835   -1.4186   -1.1608 C   0  0  0  0  0  0  0  0  0  0  0  0
   -0.2025   -1.4785   -1.0776 C   0  0  0  0  0  0  0  0  0  0  0  0
    0.4780   -0.2959   -0.7155 C   0  0  0  0  0  0  0  0  0  0  0  0
   -0.1535    0.9142   -0.4399 C   0  0  0  0  0  0  0  0  0  0  0  0
   -1.5457    0.9344   -0.5342 C   0  0  0  0  0  0  0  0  0  0  0  0
   -2.2534   -0.2141   -0.8898 C   0  0  0  0  0  0  0  0  0  0  0  0
   -2.1414   -2.3074   -1.4368 H   0  0  0  0  0  0  0  0  0  0  0  0
    0.3465   -2.3919   -1.2811 H   0  0  0  0  0  0  0  0  0  0  0  0
    0.4597    1.7961   -0.1620 H   0  0  0  0  0  0  0  0  0  0  0  0
   -2.0702    1.8610   -0.3257 H   0  0  0  0  0  0  0  0  0  0  0  0
    1.8850   -0.4097   -0.6462 N   0  0  0  0  0  0  0  0  0  0  0  0
    2.8438   -1.0009   -0.7358 N   0  0  0  0  0  0  0  0  0  0  0  0
    1.9827    3.1322    0.3065 Cl  0  0  0  0  0  0  0  0  0  0  0  0
   -3.3368   -0.1811   -0.9600 H   0  0  0  0  0  0  0  0  0  0  0  0
  1  2  2  0  0  0  0
  1  6  1  0  0  0  0
  2  3  1  0  0  0  0
  3 11  1  0  0  0  0
  3  4  2  0  0  0  0
  4  9  1  0  0  0  0
  5  4  1  0  0  0  0
  5 10  1  0  0  0  0
  6  5  2  0  0  0  0
  7  1  1  0  0  0  0
  8  2  1  0  0  0  0
 12 11  2  0  0  0  0
 14  6  1  0  0  0  0
M  RAD  2  12   2  13   2
M  END
