Coordinates from ORCA-job Ph-N2-Cl-B3LYPG-6-31G_dp-scan-d09-49-n400
 OpenBabel08281820523D

 14 14  0  0  0  0  0  0  0  0999 V2000
   -1.2982   -1.4373   -1.1335 C   0  0  0  0  0  0  0  0  0  0  0  0
    0.0249   -1.0699   -0.9177 C   0  0  0  0  0  0  0  0  0  0  0  0
    0.3287    0.2581   -0.5679 C   0  0  0  0  0  0  0  0  0  0  0  0
   -0.7043    1.1976   -0.4387 C   0  0  0  0  0  0  0  0  0  0  0  0
   -2.0285    0.8211   -0.6572 C   0  0  0  0  0  0  0  0  0  0  0  0
   -2.3282   -0.4967   -1.0054 C   0  0  0  0  0  0  0  0  0  0  0  0
   -1.5337   -2.4625   -1.4050 H   0  0  0  0  0  0  0  0  0  0  0  0
    0.8311   -1.7876   -1.0145 H   0  0  0  0  0  0  0  0  0  0  0  0
   -0.4415    2.2146   -0.1660 H   0  0  0  0  0  0  0  0  0  0  0  0
   -2.8233    1.5539   -0.5557 H   0  0  0  0  0  0  0  0  0  0  0  0
    1.6263    0.7630   -0.3232 N   0  0  0  0  0  0  0  0  0  0  0  0
    2.5563   -0.0980   -0.4543 N   0  0  0  0  0  0  0  0  0  0  0  0
    3.8577    0.2777   -0.2415 Cl  0  0  0  0  0  0  0  0  0  0  0  0
   -3.3585   -0.7942   -1.1782 H   0  0  0  0  0  0  0  0  0  0  0  0
  1  6  2  0  0  0  0
  1  2  1  0  0  0  0
  2  3  2  0  0  0  0
  3  4  1  0  0  0  0
  3 11  1  0  0  0  0
  4  9  1  0  0  0  0
  5 10  1  0  0  0  0
  5  4  2  0  0  0  0
  6  5  1  0  0  0  0
  7  1  1  0  0  0  0
  8  2  1  0  0  0  0
 12 11  1  0  0  0  0
 12 13  1  0  0  0  0
 14  6  1  0  0  0  0
M  RAD  2  11   2  12   2
M  END
