Coordinates from ORCA-job Ph-N2-Cl-B3LYPG-6-31G_dp-scan-d09-49-n400
 OpenBabel08281820523D

 14 13  0  0  0  0  0  0  0  0999 V2000
   -1.6566   -1.4503   -1.1739 C   0  0  0  0  0  0  0  0  0  0  0  0
   -0.2770   -1.5692   -1.1069 C   0  0  0  0  0  0  0  0  0  0  0  0
    0.4483   -0.4200   -0.7502 C   0  0  0  0  0  0  0  0  0  0  0  0
   -0.1208    0.8293   -0.4590 C   0  0  0  0  0  0  0  0  0  0  0  0
   -1.5106    0.9027   -0.5387 C   0  0  0  0  0  0  0  0  0  0  0  0
   -2.2675   -0.2179   -0.8906 C   0  0  0  0  0  0  0  0  0  0  0  0
   -2.2594   -2.3100   -1.4455 H   0  0  0  0  0  0  0  0  0  0  0  0
    0.2323   -2.5028   -1.3193 H   0  0  0  0  0  0  0  0  0  0  0  0
    0.5302    1.6830   -0.1865 H   0  0  0  0  0  0  0  0  0  0  0  0
   -1.9984    1.8477   -0.3222 H   0  0  0  0  0  0  0  0  0  0  0  0
    1.8358   -0.4986   -0.6730 N   0  0  0  0  0  0  0  0  0  0  0  0
    2.9126   -0.2033   -0.5201 N   0  0  0  0  0  0  0  0  0  0  0  0
    2.1890    2.9867    0.2746 Cl  0  0  0  0  0  0  0  0  0  0  0  0
   -3.3493   -0.1373   -0.9476 H   0  0  0  0  0  0  0  0  0  0  0  0
  1  2  2  0  0  0  0
  1  6  1  0  0  0  0
  2  3  1  0  0  0  0
  3 11  1  0  0  0  0
  3  4  2  0  0  0  0
  4  9  1  0  0  0  0
  5  4  1  0  0  0  0
  5 10  1  0  0  0  0
  6  5  2  0  0  0  0
  7  1  1  0  0  0  0
  8  2  1  0  0  0  0
 11 12  1  0  0  0  0
 14  6  1  0  0  0  0
M  RAD  3  11   2  12   3  13   2
M  END
