Coordinates from ORCA-job Ph-N2-Cl-B3LYPG-6-31G_dp-scan-d09-49-n400
 OpenBabel08281820523D

 14 13  0  0  0  0  0  0  0  0999 V2000
   -1.5615   -1.4170   -1.1593 C   0  0  0  0  0  0  0  0  0  0  0  0
   -0.1783   -1.4317   -1.0639 C   0  0  0  0  0  0  0  0  0  0  0  0
    0.4612   -0.2311   -0.6992 C   0  0  0  0  0  0  0  0  0  0  0  0
   -0.2118    0.9539   -0.4328 C   0  0  0  0  0  0  0  0  0  0  0  0
   -1.6033    0.9344   -0.5378 C   0  0  0  0  0  0  0  0  0  0  0  0
   -2.2725   -0.2362   -0.8969 C   0  0  0  0  0  0  0  0  0  0  0  0
   -2.0871   -2.3244   -1.4386 H   0  0  0  0  0  0  0  0  0  0  0  0
    0.4006   -2.3277   -1.2611 H   0  0  0  0  0  0  0  0  0  0  0  0
    0.3781    1.8403   -0.1553 H   0  0  0  0  0  0  0  0  0  0  0  0
   -2.1598    1.8436   -0.3359 H   0  0  0  0  0  0  0  0  0  0  0  0
    1.8871   -0.2996   -0.6158 N   0  0  0  0  0  0  0  0  0  0  0  0
    2.7895   -0.9759   -0.7312 N   0  0  0  0  0  0  0  0  0  0  0  0
    2.2223    2.8485    0.2453 Cl  0  0  0  0  0  0  0  0  0  0  0  0
   -3.3558   -0.2371   -0.9760 H   0  0  0  0  0  0  0  0  0  0  0  0
  1  2  2  0  0  0  0
  1  6  1  0  0  0  0
  2  3  1  0  0  0  0
  3 11  1  0  0  0  0
  3  4  2  0  0  0  0
  4  9  1  0  0  0  0
  5  4  1  0  0  0  0
  5 10  1  0  0  0  0
  6  5  2  0  0  0  0
  7  1  1  0  0  0  0
  8  2  1  0  0  0  0
 12 11  2  0  0  0  0
 14  6  1  0  0  0  0
M  RAD  2  12   2  13   2
M  END
