Coordinates from ORCA-job Ph-N2-Cl-B3LYPG-6-31G_dp-scan-d09-49-n400
 OpenBabel08281820523D

 14 14  0  0  0  0  0  0  0  0999 V2000
   -1.3312   -1.4461   -1.1386 C   0  0  0  0  0  0  0  0  0  0  0  0
   -0.0021   -1.0984   -0.9268 C   0  0  0  0  0  0  0  0  0  0  0  0
    0.3144    0.2251   -0.5769 C   0  0  0  0  0  0  0  0  0  0  0  0
   -0.6983    1.1825   -0.4417 C   0  0  0  0  0  0  0  0  0  0  0  0
   -2.0285    0.8242   -0.6565 C   0  0  0  0  0  0  0  0  0  0  0  0
   -2.3454   -0.4892   -1.0053 C   0  0  0  0  0  0  0  0  0  0  0  0
   -1.5831   -2.4668   -1.4107 H   0  0  0  0  0  0  0  0  0  0  0  0
    0.7926   -1.8286   -1.0276 H   0  0  0  0  0  0  0  0  0  0  0  0
   -0.4180    2.1944   -0.1687 H   0  0  0  0  0  0  0  0  0  0  0  0
   -2.8131    1.5671   -0.5516 H   0  0  0  0  0  0  0  0  0  0  0  0
    1.6302    0.7135   -0.3355 N   0  0  0  0  0  0  0  0  0  0  0  0
    2.5263   -0.1376   -0.4664 N   0  0  0  0  0  0  0  0  0  0  0  0
    4.0453    0.4715   -0.1776 Cl  0  0  0  0  0  0  0  0  0  0  0  0
   -3.3803   -0.7717   -1.1751 H   0  0  0  0  0  0  0  0  0  0  0  0
  1  6  2  0  0  0  0
  1  2  1  0  0  0  0
  2  3  2  0  0  0  0
  3  4  1  0  0  0  0
  3 11  1  0  0  0  0
  4  9  1  0  0  0  0
  5 10  1  0  0  0  0
  5  4  2  0  0  0  0
  6  5  1  0  0  0  0
  7  1  1  0  0  0  0
  8  2  1  0  0  0  0
 12 11  1  0  0  0  0
 12 13  1  0  0  0  0
 14  6  1  0  0  0  0
M  RAD  2  11   2  12   2
M  END
