Coordinates from ORCA-job Ph-N2-Cl-B3LYPG-6-31G_dp-scan-d09-49-n400
 OpenBabel08281820523D

 14 13  0  0  0  0  0  0  0  0999 V2000
   -1.5479   -1.4137   -1.1576 C   0  0  0  0  0  0  0  0  0  0  0  0
   -0.1642   -1.4041   -1.0558 C   0  0  0  0  0  0  0  0  0  0  0  0
    0.4546   -0.1948   -0.6901 C   0  0  0  0  0  0  0  0  0  0  0  0
   -0.2414    0.9766   -0.4287 C   0  0  0  0  0  0  0  0  0  0  0  0
   -1.6321    0.9355   -0.5394 C   0  0  0  0  0  0  0  0  0  0  0  0
   -2.2807   -0.2463   -0.9002 C   0  0  0  0  0  0  0  0  0  0  0  0
   -2.0558   -2.3307   -1.4383 H   0  0  0  0  0  0  0  0  0  0  0  0
    0.4298   -2.2907   -1.2496 H   0  0  0  0  0  0  0  0  0  0  0  0
    0.3312    1.8676   -0.1507 H   0  0  0  0  0  0  0  0  0  0  0  0
   -2.2045    1.8355   -0.3410 H   0  0  0  0  0  0  0  0  0  0  0  0
    1.8890   -0.2390   -0.5993 N   0  0  0  0  0  0  0  0  0  0  0  0
    2.7631   -0.9528   -0.7263 N   0  0  0  0  0  0  0  0  0  0  0  0
    2.3311    2.6620    0.2023 Cl  0  0  0  0  0  0  0  0  0  0  0  0
   -3.3634   -0.2653   -0.9840 H   0  0  0  0  0  0  0  0  0  0  0  0
  1  2  2  0  0  0  0
  1  6  1  0  0  0  0
  2  3  1  0  0  0  0
  3 11  1  0  0  0  0
  3  4  2  0  0  0  0
  4  9  1  0  0  0  0
  5  4  1  0  0  0  0
  5 10  1  0  0  0  0
  6  5  2  0  0  0  0
  7  1  1  0  0  0  0
  8  2  1  0  0  0  0
 12 11  2  0  0  0  0
 14  6  1  0  0  0  0
M  RAD  2  12   2  13   2
M  END
