Coordinates from ORCA-job Ph-N2-Cl-B3LYPG-6-31G_dp-scan-d09-49-n400
 OpenBabel08281820523D

 14 13  0  0  0  0  0  0  0  0999 V2000
   -1.6553   -1.4492   -1.1734 C   0  0  0  0  0  0  0  0  0  0  0  0
   -0.2764   -1.5702   -1.1071 C   0  0  0  0  0  0  0  0  0  0  0  0
    0.4502   -0.4207   -0.7503 C   0  0  0  0  0  0  0  0  0  0  0  0
   -0.1168    0.8300   -0.4587 C   0  0  0  0  0  0  0  0  0  0  0  0
   -1.5067    0.9042   -0.5382 C   0  0  0  0  0  0  0  0  0  0  0  0
   -2.2647   -0.2153   -0.8897 C   0  0  0  0  0  0  0  0  0  0  0  0
   -2.2594   -2.3080   -1.4447 H   0  0  0  0  0  0  0  0  0  0  0  0
    0.2315   -2.5045   -1.3197 H   0  0  0  0  0  0  0  0  0  0  0  0
    0.5361    1.6848   -0.1858 H   0  0  0  0  0  0  0  0  0  0  0  0
   -1.9931    1.8499   -0.3214 H   0  0  0  0  0  0  0  0  0  0  0  0
    1.8353   -0.4985   -0.6732 N   0  0  0  0  0  0  0  0  0  0  0  0
    2.9200   -0.2349   -0.5282 N   0  0  0  0  0  0  0  0  0  0  0  0
    2.1545    3.0061    0.2778 Cl  0  0  0  0  0  0  0  0  0  0  0  0
   -3.3464   -0.1337   -0.9464 H   0  0  0  0  0  0  0  0  0  0  0  0
  1  2  2  0  0  0  0
  1  6  1  0  0  0  0
  2  3  1  0  0  0  0
  3 11  1  0  0  0  0
  3  4  2  0  0  0  0
  4  9  1  0  0  0  0
  5  4  1  0  0  0  0
  5 10  1  0  0  0  0
  6  5  2  0  0  0  0
  7  1  1  0  0  0  0
  8  2  1  0  0  0  0
 11 12  1  0  0  0  0
 14  6  1  0  0  0  0
M  RAD  3  11   2  12   3  13   2
M  END
