Coordinates from ORCA-job Ph-N2-Cl-B3LYPG-6-31G_dp-scan-d09-49-n400
 OpenBabel08281820523D

 14 14  0  0  0  0  0  0  0  0999 V2000
   -1.3336   -1.4467   -1.1389 C   0  0  0  0  0  0  0  0  0  0  0  0
   -0.0041   -1.1004   -0.9274 C   0  0  0  0  0  0  0  0  0  0  0  0
    0.3132    0.2229   -0.5775 C   0  0  0  0  0  0  0  0  0  0  0  0
   -0.6980    1.1814   -0.4419 C   0  0  0  0  0  0  0  0  0  0  0  0
   -2.0286    0.8244   -0.6565 C   0  0  0  0  0  0  0  0  0  0  0  0
   -2.3468   -0.4887   -1.0054 C   0  0  0  0  0  0  0  0  0  0  0  0
   -1.5866   -2.4671   -1.4110 H   0  0  0  0  0  0  0  0  0  0  0  0
    0.7897   -1.8315   -1.0284 H   0  0  0  0  0  0  0  0  0  0  0  0
   -0.4166    2.1931   -0.1688 H   0  0  0  0  0  0  0  0  0  0  0  0
   -2.8124    1.5680   -0.5514 H   0  0  0  0  0  0  0  0  0  0  0  0
    1.6304    0.7096   -0.3361 N   0  0  0  0  0  0  0  0  0  0  0  0
    2.5250   -0.1394   -0.4675 N   0  0  0  0  0  0  0  0  0  0  0  0
    4.0589    0.4846   -0.1731 Cl  0  0  0  0  0  0  0  0  0  0  0  0
   -3.3820   -0.7702   -1.1750 H   0  0  0  0  0  0  0  0  0  0  0  0
  1  6  2  0  0  0  0
  1  2  1  0  0  0  0
  2  3  2  0  0  0  0
  3  4  1  0  0  0  0
  3 11  1  0  0  0  0
  4  9  1  0  0  0  0
  5 10  1  0  0  0  0
  5  4  2  0  0  0  0
  6  5  1  0  0  0  0
  7  1  1  0  0  0  0
  8  2  1  0  0  0  0
 12 11  1  0  0  0  0
 12 13  1  0  0  0  0
 14  6  1  0  0  0  0
M  RAD  2  11   2  12   2
M  END
