Coordinates from ORCA-job Ph-N2-Cl-B3LYPG-6-31G_dp-scan-d09-49-n400
 OpenBabel08281820523D

 14 13  0  0  0  0  0  0  0  0999 V2000
   -1.6545   -1.4487   -1.1731 C   0  0  0  0  0  0  0  0  0  0  0  0
   -0.2758   -1.5699   -1.1069 C   0  0  0  0  0  0  0  0  0  0  0  0
    0.4509   -0.4200   -0.7501 C   0  0  0  0  0  0  0  0  0  0  0  0
   -0.1163    0.8312   -0.4584 C   0  0  0  0  0  0  0  0  0  0  0  0
   -1.5063    0.9048   -0.5380 C   0  0  0  0  0  0  0  0  0  0  0  0
   -2.2641   -0.2148   -0.8895 C   0  0  0  0  0  0  0  0  0  0  0  0
   -2.2588   -2.3074   -1.4445 H   0  0  0  0  0  0  0  0  0  0  0  0
    0.2319   -2.5042   -1.3195 H   0  0  0  0  0  0  0  0  0  0  0  0
    0.5365    1.6865   -0.1853 H   0  0  0  0  0  0  0  0  0  0  0  0
   -1.9930    1.8504   -0.3213 H   0  0  0  0  0  0  0  0  0  0  0  0
    1.8351   -0.4986   -0.6733 N   0  0  0  0  0  0  0  0  0  0  0  0
    2.9228   -0.2472   -0.5313 N   0  0  0  0  0  0  0  0  0  0  0  0
    2.1460    3.0113    0.2788 Cl  0  0  0  0  0  0  0  0  0  0  0  0
   -3.3458   -0.1335   -0.9463 H   0  0  0  0  0  0  0  0  0  0  0  0
  1  2  2  0  0  0  0
  1  6  1  0  0  0  0
  2  3  1  0  0  0  0
  3 11  1  0  0  0  0
  3  4  2  0  0  0  0
  4  9  1  0  0  0  0
  5  4  1  0  0  0  0
  5 10  1  0  0  0  0
  6  5  2  0  0  0  0
  7  1  1  0  0  0  0
  8  2  1  0  0  0  0
 11 12  1  0  0  0  0
 14  6  1  0  0  0  0
M  RAD  3  11   2  12   3  13   2
M  END
