Coordinates from ORCA-job Ph-N2-Cl-B3LYPG-6-31G_dp-scan-d09-49-n400
 OpenBabel08281820523D

 14 14  0  0  0  0  0  0  0  0999 V2000
   -1.3061   -1.4395   -1.1347 C   0  0  0  0  0  0  0  0  0  0  0  0
    0.0185   -1.0769   -0.9199 C   0  0  0  0  0  0  0  0  0  0  0  0
    0.3254    0.2500   -0.5701 C   0  0  0  0  0  0  0  0  0  0  0  0
   -0.7026    1.1939   -0.4395 C   0  0  0  0  0  0  0  0  0  0  0  0
   -2.0284    0.8220   -0.6570 C   0  0  0  0  0  0  0  0  0  0  0  0
   -2.3322   -0.4947   -1.0054 C   0  0  0  0  0  0  0  0  0  0  0  0
   -1.5458   -2.4636   -1.4064 H   0  0  0  0  0  0  0  0  0  0  0  0
    0.8222   -1.7973   -1.0176 H   0  0  0  0  0  0  0  0  0  0  0  0
   -0.4353    2.2096   -0.1666 H   0  0  0  0  0  0  0  0  0  0  0  0
   -2.8208    1.5573   -0.5546 H   0  0  0  0  0  0  0  0  0  0  0  0
    1.6272    0.7512   -0.3261 N   0  0  0  0  0  0  0  0  0  0  0  0
    2.5480   -0.1093   -0.4579 N   0  0  0  0  0  0  0  0  0  0  0  0
    3.9022    0.3261   -0.2257 Cl  0  0  0  0  0  0  0  0  0  0  0  0
   -3.3637   -0.7886   -1.1774 H   0  0  0  0  0  0  0  0  0  0  0  0
  1  6  2  0  0  0  0
  1  2  1  0  0  0  0
  2  3  2  0  0  0  0
  3  4  1  0  0  0  0
  3 11  1  0  0  0  0
  4  9  1  0  0  0  0
  5 10  1  0  0  0  0
  5  4  2  0  0  0  0
  6  5  1  0  0  0  0
  7  1  1  0  0  0  0
  8  2  1  0  0  0  0
 12 11  1  0  0  0  0
 12 13  1  0  0  0  0
 14  6  1  0  0  0  0
M  RAD  2  11   2  12   2
M  END
