Coordinates from ORCA-job Ph-N2-Cl-B3LYPG-6-31G_dp-scan-d09-49-n400
 OpenBabel08281820523D

 14 13  0  0  0  0  0  0  0  0999 V2000
   -1.5837   -1.4186   -1.1608 C   0  0  0  0  0  0  0  0  0  0  0  0
   -0.2026   -1.4789   -1.0777 C   0  0  0  0  0  0  0  0  0  0  0  0
    0.4785   -0.2967   -0.7157 C   0  0  0  0  0  0  0  0  0  0  0  0
   -0.1524    0.9138   -0.4399 C   0  0  0  0  0  0  0  0  0  0  0  0
   -1.5445    0.9344   -0.5341 C   0  0  0  0  0  0  0  0  0  0  0  0
   -2.2529   -0.2138   -0.8897 C   0  0  0  0  0  0  0  0  0  0  0  0
   -2.1419   -2.3072   -1.4368 H   0  0  0  0  0  0  0  0  0  0  0  0
    0.3459   -2.3925   -1.2813 H   0  0  0  0  0  0  0  0  0  0  0  0
    0.4601    1.7962   -0.1620 H   0  0  0  0  0  0  0  0  0  0  0  0
   -2.0687    1.8612   -0.3255 H   0  0  0  0  0  0  0  0  0  0  0  0
    1.8854   -0.4119   -0.6468 N   0  0  0  0  0  0  0  0  0  0  0  0
    2.8437   -1.0040   -0.7366 N   0  0  0  0  0  0  0  0  0  0  0  0
    1.9780    3.1382    0.3077 Cl  0  0  0  0  0  0  0  0  0  0  0  0
   -3.3363   -0.1801   -0.9597 H   0  0  0  0  0  0  0  0  0  0  0  0
  1  2  2  0  0  0  0
  1  6  1  0  0  0  0
  2  3  1  0  0  0  0
  3 11  1  0  0  0  0
  3  4  2  0  0  0  0
  4  9  1  0  0  0  0
  5  4  1  0  0  0  0
  5 10  1  0  0  0  0
  6  5  2  0  0  0  0
  7  1  1  0  0  0  0
  8  2  1  0  0  0  0
 12 11  2  0  0  0  0
 14  6  1  0  0  0  0
M  RAD  2  12   2  13   2
M  END
