Coordinates from ORCA-job Ph-N2-Cl-B3LYPG-6-31G_dp-scan-d09-49-n400
 OpenBabel08281820523D

 14 13  0  0  0  0  0  0  0  0999 V2000
   -1.5491   -1.4141   -1.1578 C   0  0  0  0  0  0  0  0  0  0  0  0
   -0.1655   -1.4065   -1.0565 C   0  0  0  0  0  0  0  0  0  0  0  0
    0.4551   -0.1979   -0.6909 C   0  0  0  0  0  0  0  0  0  0  0  0
   -0.2390    0.9746   -0.4290 C   0  0  0  0  0  0  0  0  0  0  0  0
   -1.6297    0.9354   -0.5393 C   0  0  0  0  0  0  0  0  0  0  0  0
   -2.2801   -0.2455   -0.8999 C   0  0  0  0  0  0  0  0  0  0  0  0
   -2.0585   -2.3302   -1.4384 H   0  0  0  0  0  0  0  0  0  0  0  0
    0.4273   -2.2939   -1.2506 H   0  0  0  0  0  0  0  0  0  0  0  0
    0.3353    1.8651   -0.1511 H   0  0  0  0  0  0  0  0  0  0  0  0
   -2.2008    1.8362   -0.3406 H   0  0  0  0  0  0  0  0  0  0  0  0
    1.8888   -0.2440   -0.6006 N   0  0  0  0  0  0  0  0  0  0  0  0
    2.7652   -0.9549   -0.7267 N   0  0  0  0  0  0  0  0  0  0  0  0
    2.3224    2.6784    0.2061 Cl  0  0  0  0  0  0  0  0  0  0  0  0
   -3.3628   -0.2629   -0.9834 H   0  0  0  0  0  0  0  0  0  0  0  0
  1  2  2  0  0  0  0
  1  6  1  0  0  0  0
  2  3  1  0  0  0  0
  3 11  1  0  0  0  0
  3  4  2  0  0  0  0
  4  9  1  0  0  0  0
  5  4  1  0  0  0  0
  5 10  1  0  0  0  0
  6  5  2  0  0  0  0
  7  1  1  0  0  0  0
  8  2  1  0  0  0  0
 12 11  2  0  0  0  0
 14  6  1  0  0  0  0
M  RAD  2  12   2  13   2
M  END
