Coordinates from ORCA-job Ph-N2-Cl-B3LYPG-6-31G_dp-scan-d09-49-n400
 OpenBabel08281820523D

 14 13  0  0  0  0  0  0  0  0999 V2000
   -1.6496   -1.4467   -1.1721 C   0  0  0  0  0  0  0  0  0  0  0  0
   -0.2719   -1.5662   -1.1057 C   0  0  0  0  0  0  0  0  0  0  0  0
    0.4534   -0.4130   -0.7484 C   0  0  0  0  0  0  0  0  0  0  0  0
   -0.1170    0.8387   -0.4568 C   0  0  0  0  0  0  0  0  0  0  0  0
   -1.5074    0.9078   -0.5375 C   0  0  0  0  0  0  0  0  0  0  0  0
   -2.2622   -0.2131   -0.8889 C   0  0  0  0  0  0  0  0  0  0  0  0
   -2.2523   -2.3066   -1.4434 H   0  0  0  0  0  0  0  0  0  0  0  0
    0.2369   -2.5001   -1.3179 H   0  0  0  0  0  0  0  0  0  0  0  0
    0.5369    1.6960   -0.1831 H   0  0  0  0  0  0  0  0  0  0  0  0
   -1.9960    1.8525   -0.3212 H   0  0  0  0  0  0  0  0  0  0  0  0
    1.8324   -0.4885   -0.6712 N   0  0  0  0  0  0  0  0  0  0  0  0
    2.9330   -0.3028   -0.5453 N   0  0  0  0  0  0  0  0  0  0  0  0
    2.1166    3.0168    0.2791 Cl  0  0  0  0  0  0  0  0  0  0  0  0
   -3.3441   -0.1346   -0.9464 H   0  0  0  0  0  0  0  0  0  0  0  0
  1  2  2  0  0  0  0
  1  6  1  0  0  0  0
  2  3  1  0  0  0  0
  3 11  1  0  0  0  0
  3  4  2  0  0  0  0
  4  9  1  0  0  0  0
  5  4  1  0  0  0  0
  5 10  1  0  0  0  0
  6  5  2  0  0  0  0
  7  1  1  0  0  0  0
  8  2  1  0  0  0  0
 11 12  1  0  0  0  0
 14  6  1  0  0  0  0
M  RAD  3  11   2  12   3  13   2
M  END
