Coordinates from ORCA-job Ph-N2-Cl-B3LYPG-6-31G_dp-scan-d09-49-n400
 OpenBabel08281820523D

 14 13  0  0  0  0  0  0  0  0999 V2000
   -1.5855   -1.4185   -1.1609 C   0  0  0  0  0  0  0  0  0  0  0  0
   -0.2047   -1.4828   -1.0788 C   0  0  0  0  0  0  0  0  0  0  0  0
    0.4798   -0.3021   -0.7170 C   0  0  0  0  0  0  0  0  0  0  0  0
   -0.1477    0.9105   -0.4404 C   0  0  0  0  0  0  0  0  0  0  0  0
   -1.5398    0.9345   -0.5337 C   0  0  0  0  0  0  0  0  0  0  0  0
   -2.2513   -0.2117   -0.8890 C   0  0  0  0  0  0  0  0  0  0  0  0
   -2.1464   -2.3054   -1.4366 H   0  0  0  0  0  0  0  0  0  0  0  0
    0.3412   -2.3978   -1.2830 H   0  0  0  0  0  0  0  0  0  0  0  0
    0.4672    1.7923   -0.1624 H   0  0  0  0  0  0  0  0  0  0  0  0
   -2.0611    1.8628   -0.3245 H   0  0  0  0  0  0  0  0  0  0  0  0
    1.8848   -0.4202   -0.6491 N   0  0  0  0  0  0  0  0  0  0  0  0
    2.8494   -1.0017   -0.7357 N   0  0  0  0  0  0  0  0  0  0  0  0
    1.9574    3.1555    0.3108 Cl  0  0  0  0  0  0  0  0  0  0  0  0
   -3.3346   -0.1753   -0.9584 H   0  0  0  0  0  0  0  0  0  0  0  0
  1  2  2  0  0  0  0
  1  6  1  0  0  0  0
  2  3  1  0  0  0  0
  3 11  1  0  0  0  0
  3  4  2  0  0  0  0
  4  9  1  0  0  0  0
  5  4  1  0  0  0  0
  5 10  1  0  0  0  0
  6  5  2  0  0  0  0
  7  1  1  0  0  0  0
  8  2  1  0  0  0  0
 12 11  2  0  0  0  0
 14  6  1  0  0  0  0
M  RAD  2  12   2  13   2
M  END
