Coordinates from ORCA-job Ph-N2-Cl-B3LYPG-6-31G_dp-scan-d09-49-n400
 OpenBabel08281820523D

 14 13  0  0  0  0  0  0  0  0999 V2000
   -1.5505   -1.4145   -1.1580 C   0  0  0  0  0  0  0  0  0  0  0  0
   -0.1669   -1.4094   -1.0574 C   0  0  0  0  0  0  0  0  0  0  0  0
    0.4559   -0.2017   -0.6919 C   0  0  0  0  0  0  0  0  0  0  0  0
   -0.2357    0.9724   -0.4294 C   0  0  0  0  0  0  0  0  0  0  0  0
   -1.6266    0.9352   -0.5391 C   0  0  0  0  0  0  0  0  0  0  0  0
   -2.2791   -0.2445   -0.8996 C   0  0  0  0  0  0  0  0  0  0  0  0
   -2.0618   -2.3296   -1.4385 H   0  0  0  0  0  0  0  0  0  0  0  0
    0.4243   -2.2978   -1.2518 H   0  0  0  0  0  0  0  0  0  0  0  0
    0.3398    1.8628   -0.1515 H   0  0  0  0  0  0  0  0  0  0  0  0
   -2.1961    1.8369   -0.3401 H   0  0  0  0  0  0  0  0  0  0  0  0
    1.8888   -0.2514   -0.6026 N   0  0  0  0  0  0  0  0  0  0  0  0
    2.7671   -0.9598   -0.7279 N   0  0  0  0  0  0  0  0  0  0  0  0
    2.3112    2.7015    0.2115 Cl  0  0  0  0  0  0  0  0  0  0  0  0
   -3.3619   -0.2601   -0.9826 H   0  0  0  0  0  0  0  0  0  0  0  0
  1  2  2  0  0  0  0
  1  6  1  0  0  0  0
  2  3  1  0  0  0  0
  3 11  1  0  0  0  0
  3  4  2  0  0  0  0
  4  9  1  0  0  0  0
  5  4  1  0  0  0  0
  5 10  1  0  0  0  0
  6  5  2  0  0  0  0
  7  1  1  0  0  0  0
  8  2  1  0  0  0  0
 12 11  2  0  0  0  0
 14  6  1  0  0  0  0
M  RAD  2  12   2  13   2
M  END
