Coordinates from ORCA-job Ph-N2-Cl-B3LYPG-6-31G_dp-scan-d09-49-n400
 OpenBabel08281820523D

 14 13  0  0  0  0  0  0  0  0999 V2000
   -1.6373   -1.4034   -1.1687 C   0  0  0  0  0  0  0  0  0  0  0  0
   -0.2719   -1.5982   -1.1211 C   0  0  0  0  0  0  0  0  0  0  0  0
    0.5249   -0.4821   -0.7544 C   0  0  0  0  0  0  0  0  0  0  0  0
    0.0138    0.7930   -0.4426 C   0  0  0  0  0  0  0  0  0  0  0  0
   -1.3718    0.9334   -0.5104 C   0  0  0  0  0  0  0  0  0  0  0  0
   -2.1874   -0.1405   -0.8635 C   0  0  0  0  0  0  0  0  0  0  0  0
   -2.2856   -2.2284   -1.4439 H   0  0  0  0  0  0  0  0  0  0  0  0
    0.1830   -2.5548   -1.3533 H   0  0  0  0  0  0  0  0  0  0  0  0
    0.6486    1.6672   -0.1658 H   0  0  0  0  0  0  0  0  0  0  0  0
   -1.7875    1.9087   -0.2779 H   0  0  0  0  0  0  0  0  0  0  0  0
    1.8798   -0.6592   -0.6999 N   0  0  0  0  0  0  0  0  0  0  0  0
    2.9896   -0.8253   -0.6644 N   0  0  0  0  0  0  0  0  0  0  0  0
    1.2751    3.5385    0.3148 Cl  0  0  0  0  0  0  0  0  0  0  0  0
   -3.2646   -0.0089   -0.9076 H   0  0  0  0  0  0  0  0  0  0  0  0
  1  2  2  0  0  0  0
  1  6  1  0  0  0  0
  2  3  1  0  0  0  0
  3 11  1  0  0  0  0
  3  4  2  0  0  0  0
  4  9  1  0  0  0  0
  5  4  1  0  0  0  0
  5 10  1  0  0  0  0
  6  5  2  0  0  0  0
  7  1  1  0  0  0  0
  8  2  1  0  0  0  0
 11 12  1  0  0  0  0
 14  6  1  0  0  0  0
M  RAD  3  11   2  12   3  13   2
M  END
