Coordinates from ORCA-job Ph-N2-Cl-B3LYPG-6-31G_dp-scan-d09-49-n400
 OpenBabel08281820523D

 14 13  0  0  0  0  0  0  0  0999 V2000
   -1.4565   -1.4732   -1.1573 C   0  0  0  0  0  0  0  0  0  0  0  0
   -0.1057   -1.2067   -0.9646 C   0  0  0  0  0  0  0  0  0  0  0  0
    0.2712    0.0975   -0.6140 C   0  0  0  0  0  0  0  0  0  0  0  0
   -0.6619    1.1237   -0.4543 C   0  0  0  0  0  0  0  0  0  0  0  0
   -2.0115    0.8373   -0.6510 C   0  0  0  0  0  0  0  0  0  0  0  0
   -2.4058   -0.4558   -1.0015 C   0  0  0  0  0  0  0  0  0  0  0  0
   -1.7720   -2.4750   -1.4307 H   0  0  0  0  0  0  0  0  0  0  0  0
    0.6484   -1.9778   -1.0801 H   0  0  0  0  0  0  0  0  0  0  0  0
   -0.3196    2.1158   -0.1815 H   0  0  0  0  0  0  0  0  0  0  0  0
   -2.7517    1.6215   -0.5311 H   0  0  0  0  0  0  0  0  0  0  0  0
    1.6379    0.4381   -0.4048 N   0  0  0  0  0  0  0  0  0  0  0  0
    2.6118   -0.1947   -0.4614 N   0  0  0  0  0  0  0  0  0  0  0  0
    4.4820    1.1648    0.0295 Cl  0  0  0  0  0  0  0  0  0  0  0  0
   -3.4578   -0.6756   -1.1561 H   0  0  0  0  0  0  0  0  0  0  0  0
  1  6  2  0  0  0  0
  1  2  1  0  0  0  0
  2  3  2  0  0  0  0
  3  4  1  0  0  0  0
  3 11  1  0  0  0  0
  4  9  1  0  0  0  0
  5 10  1  0  0  0  0
  5  4  2  0  0  0  0
  6  5  1  0  0  0  0
  7  1  1  0  0  0  0
  8  2  1  0  0  0  0
 12 11  2  0  0  0  0
 14  6  1  0  0  0  0
M  RAD  2  12   2  13   2
M  END
