Coordinates from ORCA-job Ph-N2-Cl-B3LYPG-6-31G_dp-scan-d09-49-n400
 OpenBabel08281820523D

 14 13  0  0  0  0  0  0  0  0999 V2000
   -1.5347   -1.4093   -1.1562 C   0  0  0  0  0  0  0  0  0  0  0  0
   -0.1511   -1.3785   -1.0487 C   0  0  0  0  0  0  0  0  0  0  0  0
    0.4516   -0.1628   -0.6817 C   0  0  0  0  0  0  0  0  0  0  0  0
   -0.2653    0.9970   -0.4242 C   0  0  0  0  0  0  0  0  0  0  0  0
   -1.6548    0.9366   -0.5401 C   0  0  0  0  0  0  0  0  0  0  0  0
   -2.2860   -0.2540   -0.9026 C   0  0  0  0  0  0  0  0  0  0  0  0
   -2.0273   -2.3341   -1.4386 H   0  0  0  0  0  0  0  0  0  0  0  0
    0.4552   -2.2572   -1.2399 H   0  0  0  0  0  0  0  0  0  0  0  0
    0.2869    1.8953   -0.1455 H   0  0  0  0  0  0  0  0  0  0  0  0
   -2.2406    1.8286   -0.3442 H   0  0  0  0  0  0  0  0  0  0  0  0
    1.8923   -0.1899   -0.5851 N   0  0  0  0  0  0  0  0  0  0  0  0
    2.7398   -0.9368   -0.7209 N   0  0  0  0  0  0  0  0  0  0  0  0
    2.4107    2.4934    0.1594 Cl  0  0  0  0  0  0  0  0  0  0  0  0
   -3.3679   -0.2882   -0.9905 H   0  0  0  0  0  0  0  0  0  0  0  0
  1  2  2  0  0  0  0
  1  6  1  0  0  0  0
  2  3  1  0  0  0  0
  3 11  1  0  0  0  0
  3  4  2  0  0  0  0
  4  9  1  0  0  0  0
  5  4  1  0  0  0  0
  5 10  1  0  0  0  0
  6  5  2  0  0  0  0
  7  1  1  0  0  0  0
  8  2  1  0  0  0  0
 12 11  2  0  0  0  0
 14  6  1  0  0  0  0
M  RAD  2  12   2  13   2
M  END
