Coordinates from ORCA-job Ph-N2-Cl-B3LYPG-6-31G_dp-scan-d09-49-n400
 OpenBabel08281820523D

 14 13  0  0  0  0  0  0  0  0999 V2000
   -1.5773   -1.4188   -1.1604 C   0  0  0  0  0  0  0  0  0  0  0  0
   -0.1954   -1.4647   -1.0735 C   0  0  0  0  0  0  0  0  0  0  0  0
    0.4718   -0.2761   -0.7107 C   0  0  0  0  0  0  0  0  0  0  0  0
   -0.1725    0.9261   -0.4381 C   0  0  0  0  0  0  0  0  0  0  0  0
   -1.5645    0.9343   -0.5356 C   0  0  0  0  0  0  0  0  0  0  0  0
   -2.2601   -0.2215   -0.8921 C   0  0  0  0  0  0  0  0  0  0  0  0
   -2.1251   -2.3135   -1.4374 H   0  0  0  0  0  0  0  0  0  0  0  0
    0.3633   -2.3726   -1.2750 H   0  0  0  0  0  0  0  0  0  0  0  0
    0.4358    1.8081   -0.1606 H   0  0  0  0  0  0  0  0  0  0  0  0
   -2.0993    1.8555   -0.3292 H   0  0  0  0  0  0  0  0  0  0  0  0
    1.8851   -0.3744   -0.6366 N   0  0  0  0  0  0  0  0  0  0  0  0
    2.8275   -0.9922   -0.7343 N   0  0  0  0  0  0  0  0  0  0  0  0
    2.0633    3.0489    0.2899 Cl  0  0  0  0  0  0  0  0  0  0  0  0
   -3.3436   -0.1992   -0.9651 H   0  0  0  0  0  0  0  0  0  0  0  0
  1  2  2  0  0  0  0
  1  6  1  0  0  0  0
  2  3  1  0  0  0  0
  3 11  1  0  0  0  0
  3  4  2  0  0  0  0
  4  9  1  0  0  0  0
  5  4  1  0  0  0  0
  5 10  1  0  0  0  0
  6  5  2  0  0  0  0
  7  1  1  0  0  0  0
  8  2  1  0  0  0  0
 12 11  2  0  0  0  0
 14  6  1  0  0  0  0
M  RAD  2  12   2  13   2
M  END
