Coordinates from ORCA-job Ph-N2-Cl-B3LYPG-6-31G_dp-scan-d09-49-n400
 OpenBabel08281820523D

 14 13  0  0  0  0  0  0  0  0999 V2000
   -1.6531   -1.4563   -1.1758 C   0  0  0  0  0  0  0  0  0  0  0  0
   -0.2689   -1.5423   -1.0992 C   0  0  0  0  0  0  0  0  0  0  0  0
    0.4360   -0.3858   -0.7411 C   0  0  0  0  0  0  0  0  0  0  0  0
   -0.1691    0.8464   -0.4565 C   0  0  0  0  0  0  0  0  0  0  0  0
   -1.5587    0.8955   -0.5432 C   0  0  0  0  0  0  0  0  0  0  0  0
   -2.2925   -0.2406   -0.8986 C   0  0  0  0  0  0  0  0  0  0  0  0
   -2.2339   -2.3302   -1.4506 H   0  0  0  0  0  0  0  0  0  0  0  0
    0.2617   -2.4649   -1.3074 H   0  0  0  0  0  0  0  0  0  0  0  0
    0.4576    1.7021   -0.1845 H   0  0  0  0  0  0  0  0  0  0  0  0
   -2.0681    1.8299   -0.3307 H   0  0  0  0  0  0  0  0  0  0  0  0
    1.8350   -0.4618   -0.6624 N   0  0  0  0  0  0  0  0  0  0  0  0
    2.8577   -0.0020   -0.4703 N   0  0  0  0  0  0  0  0  0  0  0  0
    2.4800    2.7310    0.2235 Cl  0  0  0  0  0  0  0  0  0  0  0  0
   -3.3751   -0.1812   -0.9618 H   0  0  0  0  0  0  0  0  0  0  0  0
  1  2  2  0  0  0  0
  1  6  1  0  0  0  0
  2  3  1  0  0  0  0
  3 11  1  0  0  0  0
  3  4  2  0  0  0  0
  4  9  1  0  0  0  0
  5  4  1  0  0  0  0
  5 10  1  0  0  0  0
  6  5  2  0  0  0  0
  7  1  1  0  0  0  0
  8  2  1  0  0  0  0
 11 12  2  0  0  0  0
 14  6  1  0  0  0  0
M  RAD  2  12   2  13   2
M  END
