Coordinates from ORCA-job Ph-N2-Cl-B3LYPG-6-31G_dp-scan-d09-49-n400
 OpenBabel08281820523D

 14 14  0  0  1  0  0  0  0  0999 V2000
   -1.5006   -1.0944   -1.4500 C   0  0  0  0  0  0  0  0  0  0  0  0
   -0.1541   -1.2780   -1.4369 C   0  0  0  0  0  0  0  0  0  0  0  0
    0.6592   -0.3446   -0.6895 C   0  0  1  0  0  0  0  0  0  0  0  0
    0.1246    0.9422   -0.2349 C   0  0  2  0  0  0  0  0  0  0  0  0
   -1.3267    0.9188   -0.0768 C   0  0  0  0  0  0  0  0  0  0  0  0
   -2.0902   -0.0236   -0.6884 C   0  0  0  0  0  0  0  0  0  0  0  0
   -2.1371   -1.7787   -2.0009 H   0  0  0  0  0  0  0  0  0  0  0  0
    0.3224   -2.1159   -1.9344 H   0  0  0  0  0  0  0  0  0  0  0  0
    0.6954    1.4321    0.5457 H   0  0  0  0  0  0  0  0  0  0  0  0
   -1.7793    1.7380    0.4711 H   0  0  0  0  0  0  0  0  0  0  0  0
    1.8640   -0.7669   -0.3180 N   0  0  0  0  0  0  0  0  0  0  0  0
    2.8479   -1.2472    0.0033 N   0  0  0  0  0  0  0  0  0  0  0  0
    0.3552    2.5341   -1.6457 Cl  0  0  0  0  0  0  0  0  0  0  0  0
   -3.1720    0.0242   -0.6034 H   0  0  0  0  0  0  0  0  0  0  0  0
  1  2  2  0  0  0  0
  1  6  1  0  0  0  0
  2  3  1  0  0  0  0
  3 11  1  1  0  0  0
  3  4  1  0  0  0  0
  4  5  1  0  0  0  0
  4  9  1  1  0  0  0
  5 10  1  0  0  0  0
  6 14  1  0  0  0  0
  6  5  2  0  0  0  0
  7  1  1  0  0  0  0
  8  2  1  0  0  0  0
 11 12  1  0  0  0  0
 13  4  1  0  0  0  0
M  RAD  3   3   2  11   2  12   3
M  END
