Coordinates from ORCA-job Ph-N2-Cl-B3LYPG-6-31G_dp-scan-d09-49-n400
 OpenBabel08281820523D

 14 13  0  0  0  0  0  0  0  0999 V2000
   -1.5875   -1.4184   -1.1610 C   0  0  0  0  0  0  0  0  0  0  0  0
   -0.2071   -1.4871   -1.0801 C   0  0  0  0  0  0  0  0  0  0  0  0
    0.4812   -0.3081   -0.7185 C   0  0  0  0  0  0  0  0  0  0  0  0
   -0.1426    0.9068   -0.4410 C   0  0  0  0  0  0  0  0  0  0  0  0
   -1.5347    0.9347   -0.5333 C   0  0  0  0  0  0  0  0  0  0  0  0
   -2.2495   -0.2094   -0.8883 C   0  0  0  0  0  0  0  0  0  0  0  0
   -2.1514   -2.3034   -1.4365 H   0  0  0  0  0  0  0  0  0  0  0  0
    0.3359   -2.4037   -1.2849 H   0  0  0  0  0  0  0  0  0  0  0  0
    0.4749    1.7877   -0.1630 H   0  0  0  0  0  0  0  0  0  0  0  0
   -2.0527    1.8647   -0.3234 H   0  0  0  0  0  0  0  0  0  0  0  0
    1.8841   -0.4291   -0.6515 N   0  0  0  0  0  0  0  0  0  0  0  0
    2.8560   -0.9981   -0.7344 N   0  0  0  0  0  0  0  0  0  0  0  0
    1.9349    3.1734    0.3139 Cl  0  0  0  0  0  0  0  0  0  0  0  0
   -3.3328   -0.1700   -0.9569 H   0  0  0  0  0  0  0  0  0  0  0  0
  1  2  2  0  0  0  0
  1  6  1  0  0  0  0
  2  3  1  0  0  0  0
  3 11  1  0  0  0  0
  3  4  2  0  0  0  0
  4  9  1  0  0  0  0
  5  4  1  0  0  0  0
  5 10  1  0  0  0  0
  6  5  2  0  0  0  0
  7  1  1  0  0  0  0
  8  2  1  0  0  0  0
 12 11  2  0  0  0  0
 14  6  1  0  0  0  0
M  RAD  2  12   2  13   2
M  END
