Coordinates from ORCA-job Ph-N2-Cl-B3LYPG-6-31G_dp-scan-d09-49-n400
 OpenBabel08281820513D

 14 14  0  0  0  0  0  0  0  0999 V2000
   -1.2459   -1.4217   -1.1251 C   0  0  0  0  0  0  0  0  0  0  0  0
    0.0682   -1.0205   -0.9035 C   0  0  0  0  0  0  0  0  0  0  0  0
    0.3533    0.3149   -0.5538 C   0  0  0  0  0  0  0  0  0  0  0  0
   -0.7148    1.2241   -0.4345 C   0  0  0  0  0  0  0  0  0  0  0  0
   -2.0257    0.8137   -0.6580 C   0  0  0  0  0  0  0  0  0  0  0  0
   -2.3007   -0.5114   -1.0052 C   0  0  0  0  0  0  0  0  0  0  0  0
   -1.4501   -2.4542   -1.3958 H   0  0  0  0  0  0  0  0  0  0  0  0
    0.8795   -1.7352   -1.0006 H   0  0  0  0  0  0  0  0  0  0  0  0
   -0.4839    2.2494   -0.1632 H   0  0  0  0  0  0  0  0  0  0  0  0
   -2.8363    1.5305   -0.5608 H   0  0  0  0  0  0  0  0  0  0  0  0
    1.6215    0.8510   -0.3054 N   0  0  0  0  0  0  0  0  0  0  0  0
    2.6100   -0.0273   -0.4277 N   0  0  0  0  0  0  0  0  0  0  0  0
    3.5563   -0.0408   -0.3434 Cl  0  0  0  0  0  0  0  0  0  0  0  0
   -3.3228   -0.8326   -1.1818 H   0  0  0  0  0  0  0  0  0  0  0  0
  1  6  2  0  0  0  0
  1  2  1  0  0  0  0
  2  3  2  0  0  0  0
  3  4  1  0  0  0  0
  3 11  1  0  0  0  0
  4  9  1  0  0  0  0
  5 10  1  0  0  0  0
  5  4  2  0  0  0  0
  6  5  1  0  0  0  0
  7  1  1  0  0  0  0
  8  2  1  0  0  0  0
 12 13  1  0  0  0  0
 12 11  1  0  0  0  0
 14  6  1  0  0  0  0
M  RAD  2  11   2  12   2
M  END
