Coordinates from ORCA-job Ph-N2-Cl-B3LYPG-6-31G_dp-scan-d09-49-n400
 OpenBabel08281820523D

 14 13  0  0  0  0  0  0  0  0999 V2000
   -1.5390   -1.4109   -1.1563 C   0  0  0  0  0  0  0  0  0  0  0  0
   -0.1554   -1.3868   -1.0507 C   0  0  0  0  0  0  0  0  0  0  0  0
    0.4522   -0.1728   -0.6846 C   0  0  0  0  0  0  0  0  0  0  0  0
   -0.2580    0.9906   -0.4261 C   0  0  0  0  0  0  0  0  0  0  0  0
   -1.6479    0.9364   -0.5403 C   0  0  0  0  0  0  0  0  0  0  0  0
   -2.2846   -0.2516   -0.9019 C   0  0  0  0  0  0  0  0  0  0  0  0
   -2.0365   -2.3334   -1.4377 H   0  0  0  0  0  0  0  0  0  0  0  0
    0.4472   -2.2679   -1.2424 H   0  0  0  0  0  0  0  0  0  0  0  0
    0.3013    1.8862   -0.1478 H   0  0  0  0  0  0  0  0  0  0  0  0
   -2.2295    1.8310   -0.3440 H   0  0  0  0  0  0  0  0  0  0  0  0
    1.8909   -0.2046   -0.5900 N   0  0  0  0  0  0  0  0  0  0  0  0
    2.7479   -0.9399   -0.7236 N   0  0  0  0  0  0  0  0  0  0  0  0
    2.3869    2.5449    0.1750 Cl  0  0  0  0  0  0  0  0  0  0  0  0
   -3.3667   -0.2811   -0.9884 H   0  0  0  0  0  0  0  0  0  0  0  0
  1  2  2  0  0  0  0
  1  6  1  0  0  0  0
  2  3  1  0  0  0  0
  3 11  1  0  0  0  0
  3  4  2  0  0  0  0
  4  9  1  0  0  0  0
  5  4  1  0  0  0  0
  5 10  1  0  0  0  0
  6  5  2  0  0  0  0
  7  1  1  0  0  0  0
  8  2  1  0  0  0  0
 12 11  2  0  0  0  0
 14  6  1  0  0  0  0
M  RAD  2  12   2  13   2
M  END
