Coordinates from ORCA-job Ph-N2-Cl-B3LYPG-6-31G_dp-scan-d09-49-n400
 OpenBabel08281820523D

 14 13  0  0  0  0  0  0  0  0999 V2000
   -1.6555   -1.4493   -1.1734 C   0  0  0  0  0  0  0  0  0  0  0  0
   -0.2765   -1.5699   -1.1070 C   0  0  0  0  0  0  0  0  0  0  0  0
    0.4499   -0.4205   -0.7503 C   0  0  0  0  0  0  0  0  0  0  0  0
   -0.1178    0.8301   -0.4587 C   0  0  0  0  0  0  0  0  0  0  0  0
   -1.5077    0.9039   -0.5383 C   0  0  0  0  0  0  0  0  0  0  0  0
   -2.2653   -0.2159   -0.8899 C   0  0  0  0  0  0  0  0  0  0  0  0
   -2.2594   -2.3083   -1.4449 H   0  0  0  0  0  0  0  0  0  0  0  0
    0.2317   -2.5040   -1.3195 H   0  0  0  0  0  0  0  0  0  0  0  0
    0.5343    1.6849   -0.1858 H   0  0  0  0  0  0  0  0  0  0  0  0
   -1.9946    1.8493   -0.3216 H   0  0  0  0  0  0  0  0  0  0  0  0
    1.8356   -0.4995   -0.6734 N   0  0  0  0  0  0  0  0  0  0  0  0
    2.9189   -0.2295   -0.5268 N   0  0  0  0  0  0  0  0  0  0  0  0
    2.1621    3.0034    0.2775 Cl  0  0  0  0  0  0  0  0  0  0  0  0
   -3.3471   -0.1347   -0.9467 H   0  0  0  0  0  0  0  0  0  0  0  0
  1  2  2  0  0  0  0
  1  6  1  0  0  0  0
  2  3  1  0  0  0  0
  3 11  1  0  0  0  0
  3  4  2  0  0  0  0
  4  9  1  0  0  0  0
  5  4  1  0  0  0  0
  5 10  1  0  0  0  0
  6  5  2  0  0  0  0
  7  1  1  0  0  0  0
  8  2  1  0  0  0  0
 11 12  1  0  0  0  0
 14  6  1  0  0  0  0
M  RAD  3  11   2  12   3  13   2
M  END
