Coordinates from ORCA-job Ph-N2-Cl-B3LYPG-6-31G_dp-scan-d09-49-n400
 OpenBabel08281820523D

 14 13  0  0  0  0  0  0  0  0999 V2000
   -1.5700   -1.4183   -1.1600 C   0  0  0  0  0  0  0  0  0  0  0  0
   -0.1874   -1.4493   -1.0690 C   0  0  0  0  0  0  0  0  0  0  0  0
    0.4666   -0.2548   -0.7053 C   0  0  0  0  0  0  0  0  0  0  0  0
   -0.1912    0.9392   -0.4356 C   0  0  0  0  0  0  0  0  0  0  0  0
   -1.5831    0.9341   -0.5368 C   0  0  0  0  0  0  0  0  0  0  0  0
   -2.2662   -0.2288   -0.8945 C   0  0  0  0  0  0  0  0  0  0  0  0
   -2.1072   -2.3192   -1.4380 H   0  0  0  0  0  0  0  0  0  0  0  0
    0.3811   -2.3515   -1.2684 H   0  0  0  0  0  0  0  0  0  0  0  0
    0.4082    1.8234   -0.1581 H   0  0  0  0  0  0  0  0  0  0  0  0
   -2.1284    1.8496   -0.3326 H   0  0  0  0  0  0  0  0  0  0  0  0
    1.8863   -0.3395   -0.6270 N   0  0  0  0  0  0  0  0  0  0  0  0
    2.8085   -0.9877   -0.7340 N   0  0  0  0  0  0  0  0  0  0  0  0
    2.1414    2.9602    0.2708 Cl  0  0  0  0  0  0  0  0  0  0  0  0
   -3.3497   -0.2175   -0.9704 H   0  0  0  0  0  0  0  0  0  0  0  0
  1  2  2  0  0  0  0
  1  6  1  0  0  0  0
  2  3  1  0  0  0  0
  3 11  1  0  0  0  0
  3  4  2  0  0  0  0
  4  9  1  0  0  0  0
  5  4  1  0  0  0  0
  5 10  1  0  0  0  0
  6  5  2  0  0  0  0
  7  1  1  0  0  0  0
  8  2  1  0  0  0  0
 12 11  2  0  0  0  0
 14  6  1  0  0  0  0
M  RAD  2  12   2  13   2
M  END
