Coordinates from ORCA-job Ph-N2-Cl-B3LYPG-6-31G_dp-scan-d09-49-n400
 OpenBabel08281820523D

 14 13  0  0  0  0  0  0  0  0999 V2000
   -1.6326   -1.4169   -1.1660 C   0  0  0  0  0  0  0  0  0  0  0  0
   -0.2629   -1.5778   -1.1100 C   0  0  0  0  0  0  0  0  0  0  0  0
    0.5063   -0.4407   -0.7502 C   0  0  0  0  0  0  0  0  0  0  0  0
   -0.0351    0.8251   -0.4504 C   0  0  0  0  0  0  0  0  0  0  0  0
   -1.4241    0.9294   -0.5239 C   0  0  0  0  0  0  0  0  0  0  0  0
   -2.2128   -0.1656   -0.8738 C   0  0  0  0  0  0  0  0  0  0  0  0
   -2.2595   -2.2596   -1.4370 H   0  0  0  0  0  0  0  0  0  0  0  0
    0.2155   -2.5257   -1.3304 H   0  0  0  0  0  0  0  0  0  0  0  0
    0.6011    1.7004   -0.1716 H   0  0  0  0  0  0  0  0  0  0  0  0
   -1.8731    1.8917   -0.2993 H   0  0  0  0  0  0  0  0  0  0  0  0
    1.8657   -0.5989   -0.6942 N   0  0  0  0  0  0  0  0  0  0  0  0
    2.9728   -0.7812   -0.6646 N   0  0  0  0  0  0  0  0  0  0  0  0
    1.5401    3.4187    0.3371 Cl  0  0  0  0  0  0  0  0  0  0  0  0
   -3.2925   -0.0589   -0.9245 H   0  0  0  0  0  0  0  0  0  0  0  0
  1  2  2  0  0  0  0
  1  6  1  0  0  0  0
  2  3  1  0  0  0  0
  3 11  1  0  0  0  0
  3  4  2  0  0  0  0
  4  9  1  0  0  0  0
  5  4  1  0  0  0  0
  5 10  1  0  0  0  0
  6  5  2  0  0  0  0
  7  1  1  0  0  0  0
  8  2  1  0  0  0  0
 11 12  1  0  0  0  0
 14  6  1  0  0  0  0
M  RAD  3  11   2  12   3  13   2
M  END
