Coordinates from ORCA-job Ph-N2-Cl-B3LYPG-6-31G_dp-scan-d09-49-n400
 OpenBabel08281820523D

 14 13  0  0  0  0  0  0  0  0999 V2000
   -1.6562   -1.4553   -1.1756 C   0  0  0  0  0  0  0  0  0  0  0  0
   -0.2732   -1.5535   -1.1025 C   0  0  0  0  0  0  0  0  0  0  0  0
    0.4390   -0.4002   -0.7450 C   0  0  0  0  0  0  0  0  0  0  0  0
   -0.1525    0.8383   -0.4580 C   0  0  0  0  0  0  0  0  0  0  0  0
   -1.5420    0.8969   -0.5420 C   0  0  0  0  0  0  0  0  0  0  0  0
   -2.2847   -0.2336   -0.8960 C   0  0  0  0  0  0  0  0  0  0  0  0
   -2.2452   -2.3240   -1.4493 H   0  0  0  0  0  0  0  0  0  0  0  0
    0.2496   -2.4801   -1.3123 H   0  0  0  0  0  0  0  0  0  0  0  0
    0.4838    1.6916   -0.1862 H   0  0  0  0  0  0  0  0  0  0  0  0
   -2.0436    1.8352   -0.3279 H   0  0  0  0  0  0  0  0  0  0  0  0
    1.8355   -0.4770   -0.6667 N   0  0  0  0  0  0  0  0  0  0  0  0
    2.8736   -0.0591   -0.4843 N   0  0  0  0  0  0  0  0  0  0  0  0
    2.3918    2.8270    0.2439 Cl  0  0  0  0  0  0  0  0  0  0  0  0
   -3.3671   -0.1660   -0.9569 H   0  0  0  0  0  0  0  0  0  0  0  0
  1  2  2  0  0  0  0
  1  6  1  0  0  0  0
  2  3  1  0  0  0  0
  3 11  1  0  0  0  0
  3  4  2  0  0  0  0
  4  9  1  0  0  0  0
  5  4  1  0  0  0  0
  5 10  1  0  0  0  0
  6  5  2  0  0  0  0
  7  1  1  0  0  0  0
  8  2  1  0  0  0  0
 11 12  2  0  0  0  0
 14  6  1  0  0  0  0
M  RAD  2  12   2  13   2
M  END
