Coordinates from ORCA-job Ph-N2-Cl-B3LYPG-6-31G_dp-scan-d09-49-n400
 OpenBabel08281820523D

 14 13  0  0  0  0  0  0  0  0999 V2000
   -1.6576   -1.4520   -1.1745 C   0  0  0  0  0  0  0  0  0  0  0  0
   -0.2770   -1.5667   -1.1063 C   0  0  0  0  0  0  0  0  0  0  0  0
    0.4454   -0.4172   -0.7495 C   0  0  0  0  0  0  0  0  0  0  0  0
   -0.1279    0.8297   -0.4591 C   0  0  0  0  0  0  0  0  0  0  0  0
   -1.5176    0.9008   -0.5396 C   0  0  0  0  0  0  0  0  0  0  0  0
   -2.2718   -0.2218   -0.8919 C   0  0  0  0  0  0  0  0  0  0  0  0
   -2.2576   -2.3135   -1.4466 H   0  0  0  0  0  0  0  0  0  0  0  0
    0.2350   -2.4989   -1.3181 H   0  0  0  0  0  0  0  0  0  0  0  0
    0.5206    1.6824   -0.1870 H   0  0  0  0  0  0  0  0  0  0  0  0
   -2.0081    1.8444   -0.3235 H   0  0  0  0  0  0  0  0  0  0  0  0
    1.8360   -0.4950   -0.6718 N   0  0  0  0  0  0  0  0  0  0  0  0
    2.9018   -0.1608   -0.5095 N   0  0  0  0  0  0  0  0  0  0  0  0
    2.2411    2.9521    0.2683 Cl  0  0  0  0  0  0  0  0  0  0  0  0
   -3.3537   -0.1435   -0.9497 H   0  0  0  0  0  0  0  0  0  0  0  0
  1  2  2  0  0  0  0
  1  6  1  0  0  0  0
  2  3  1  0  0  0  0
  3 11  1  0  0  0  0
  3  4  2  0  0  0  0
  4  9  1  0  0  0  0
  5  4  1  0  0  0  0
  5 10  1  0  0  0  0
  6  5  2  0  0  0  0
  7  1  1  0  0  0  0
  8  2  1  0  0  0  0
 11 12  1  0  0  0  0
 14  6  1  0  0  0  0
M  RAD  3  11   2  12   3  13   2
M  END
