Coordinates from ORCA-job Ph-N2-Cl-B3LYPG-6-31G_dp-scan-d09-49-n400
 OpenBabel08281820523D

 14 14  0  0  0  0  0  0  0  0999 V2000
   -1.3005   -1.4380   -1.1338 C   0  0  0  0  0  0  0  0  0  0  0  0
    0.0231   -1.0719   -0.9183 C   0  0  0  0  0  0  0  0  0  0  0  0
    0.3277    0.2558   -0.5685 C   0  0  0  0  0  0  0  0  0  0  0  0
   -0.7038    1.1965   -0.4389 C   0  0  0  0  0  0  0  0  0  0  0  0
   -2.0284    0.8213   -0.6572 C   0  0  0  0  0  0  0  0  0  0  0  0
   -2.3294   -0.4961   -1.0054 C   0  0  0  0  0  0  0  0  0  0  0  0
   -1.5372   -2.4628   -1.4054 H   0  0  0  0  0  0  0  0  0  0  0  0
    0.8286   -1.7904   -1.0153 H   0  0  0  0  0  0  0  0  0  0  0  0
   -0.4397    2.2132   -0.1661 H   0  0  0  0  0  0  0  0  0  0  0  0
   -2.8226    1.5549   -0.5554 H   0  0  0  0  0  0  0  0  0  0  0  0
    1.6265    0.7596   -0.3240 N   0  0  0  0  0  0  0  0  0  0  0  0
    2.5539   -0.1013   -0.4554 N   0  0  0  0  0  0  0  0  0  0  0  0
    3.8705    0.2917   -0.2371 Cl  0  0  0  0  0  0  0  0  0  0  0  0
   -3.3600   -0.7925   -1.1780 H   0  0  0  0  0  0  0  0  0  0  0  0
  1  6  2  0  0  0  0
  1  2  1  0  0  0  0
  2  3  2  0  0  0  0
  3  4  1  0  0  0  0
  3 11  1  0  0  0  0
  4  9  1  0  0  0  0
  5 10  1  0  0  0  0
  5  4  2  0  0  0  0
  6  5  1  0  0  0  0
  7  1  1  0  0  0  0
  8  2  1  0  0  0  0
 12 11  1  0  0  0  0
 12 13  1  0  0  0  0
 14  6  1  0  0  0  0
M  RAD  2  11   2  12   2
M  END
