Coordinates from ORCA-job Ph-N2-Cl-B3LYPG-6-31G_dp-scan-d09-49-n400
 OpenBabel08281820523D

 14 13  0  0  0  0  0  0  0  0999 V2000
   -1.4665   -1.4751   -1.1585 C   0  0  0  0  0  0  0  0  0  0  0  0
   -0.1137   -1.2169   -0.9679 C   0  0  0  0  0  0  0  0  0  0  0  0
    0.2707    0.0853   -0.6174 C   0  0  0  0  0  0  0  0  0  0  0  0
   -0.6555    1.1175   -0.4554 C   0  0  0  0  0  0  0  0  0  0  0  0
   -2.0069    0.8388   -0.6502 C   0  0  0  0  0  0  0  0  0  0  0  0
   -2.4092   -0.4520   -1.0007 C   0  0  0  0  0  0  0  0  0  0  0  0
   -1.7884   -2.4749   -1.4318 H   0  0  0  0  0  0  0  0  0  0  0  0
    0.6359   -1.9921   -1.0848 H   0  0  0  0  0  0  0  0  0  0  0  0
   -0.3069    2.1074   -0.1827 H   0  0  0  0  0  0  0  0  0  0  0  0
   -2.7423    1.6272   -0.5288 H   0  0  0  0  0  0  0  0  0  0  0  0
    1.6388    0.4127   -0.4109 N   0  0  0  0  0  0  0  0  0  0  0  0
    2.6235   -0.1985   -0.4621 N   0  0  0  0  0  0  0  0  0  0  0  0
    4.4918    1.2260    0.0463 Cl  0  0  0  0  0  0  0  0  0  0  0  0
   -3.4627   -0.6654   -1.1537 H   0  0  0  0  0  0  0  0  0  0  0  0
  1  6  2  0  0  0  0
  1  2  1  0  0  0  0
  2  3  2  0  0  0  0
  3  4  1  0  0  0  0
  3 11  1  0  0  0  0
  4  9  1  0  0  0  0
  5 10  1  0  0  0  0
  5  4  2  0  0  0  0
  6  5  1  0  0  0  0
  7  1  1  0  0  0  0
  8  2  1  0  0  0  0
 12 11  2  0  0  0  0
 14  6  1  0  0  0  0
M  RAD  2  12   2  13   2
M  END
