Coordinates from ORCA-job Ph-N2-Cl-B3LYPG-6-31G_dp-scan-d09-49-n400
 OpenBabel08281820523D

 14 13  0  0  0  0  0  0  0  0999 V2000
   -1.6509   -1.4564   -1.1758 C   0  0  0  0  0  0  0  0  0  0  0  0
   -0.2661   -1.5358   -1.0973 C   0  0  0  0  0  0  0  0  0  0  0  0
    0.4348   -0.3771   -0.7387 C   0  0  0  0  0  0  0  0  0  0  0  0
   -0.1780    0.8512   -0.4556 C   0  0  0  0  0  0  0  0  0  0  0  0
   -1.5675    0.8953   -0.5438 C   0  0  0  0  0  0  0  0  0  0  0  0
   -2.2963   -0.2439   -0.8998 C   0  0  0  0  0  0  0  0  0  0  0  0
   -2.2271   -2.3333   -1.4512 H   0  0  0  0  0  0  0  0  0  0  0  0
    0.2689   -2.4560   -1.3046 H   0  0  0  0  0  0  0  0  0  0  0  0
    0.4439    1.7082   -0.1833 H   0  0  0  0  0  0  0  0  0  0  0  0
   -2.0811    1.8275   -0.3321 H   0  0  0  0  0  0  0  0  0  0  0  0
    1.8346   -0.4523   -0.6599 N   0  0  0  0  0  0  0  0  0  0  0  0
    2.8507    0.0257   -0.4635 N   0  0  0  0  0  0  0  0  0  0  0  0
    2.5219    2.6761    0.2112 Cl  0  0  0  0  0  0  0  0  0  0  0  0
   -3.3791   -0.1891   -0.9645 H   0  0  0  0  0  0  0  0  0  0  0  0
  1  2  2  0  0  0  0
  1  6  1  0  0  0  0
  2  3  1  0  0  0  0
  3 11  1  0  0  0  0
  3  4  2  0  0  0  0
  4  9  1  0  0  0  0
  5  4  1  0  0  0  0
  5 10  1  0  0  0  0
  6  5  2  0  0  0  0
  7  1  1  0  0  0  0
  8  2  1  0  0  0  0
 11 12  2  0  0  0  0
 14  6  1  0  0  0  0
M  RAD  2  12   2  13   2
M  END
