Coordinates from ORCA-job Ph-N2-Cl-B3LYPG-6-31G_dp-scan-d09-49-n400
 OpenBabel08281820513D

 14 14  0  0  0  0  0  0  0  0999 V2000
   -1.2524   -1.4235   -1.1260 C   0  0  0  0  0  0  0  0  0  0  0  0
    0.0628   -1.0269   -0.9048 C   0  0  0  0  0  0  0  0  0  0  0  0
    0.3507    0.3076   -0.5550 C   0  0  0  0  0  0  0  0  0  0  0  0
   -0.7135    1.2204   -0.4348 C   0  0  0  0  0  0  0  0  0  0  0  0
   -2.0262    0.8145   -0.6580 C   0  0  0  0  0  0  0  0  0  0  0  0
   -2.3044   -0.5095   -1.0055 C   0  0  0  0  0  0  0  0  0  0  0  0
   -1.4606   -2.4551   -1.3969 H   0  0  0  0  0  0  0  0  0  0  0  0
    0.8738   -1.7412   -1.0015 H   0  0  0  0  0  0  0  0  0  0  0  0
   -0.4787    2.2447   -0.1633 H   0  0  0  0  0  0  0  0  0  0  0  0
   -2.8347    1.5336   -0.5605 H   0  0  0  0  0  0  0  0  0  0  0  0
    1.6216    0.8403   -0.3072 N   0  0  0  0  0  0  0  0  0  0  0  0
    2.6064   -0.0342   -0.4305 N   0  0  0  0  0  0  0  0  0  0  0  0
    3.5912   -0.0028   -0.3328 Cl  0  0  0  0  0  0  0  0  0  0  0  0
   -3.3275   -0.8278   -1.1821 H   0  0  0  0  0  0  0  0  0  0  0  0
  1  6  2  0  0  0  0
  1  2  1  0  0  0  0
  2  3  2  0  0  0  0
  3  4  1  0  0  0  0
  3 11  1  0  0  0  0
  4  9  1  0  0  0  0
  5 10  1  0  0  0  0
  5  4  2  0  0  0  0
  6  5  1  0  0  0  0
  7  1  1  0  0  0  0
  8  2  1  0  0  0  0
 12 13  1  0  0  0  0
 12 11  1  0  0  0  0
 14  6  1  0  0  0  0
M  RAD  2  11   2  12   2
M  END
