Coordinates from ORCA-job Ph-N2-Cl-B3LYPG-6-31G_dp-scan-d09-49-n400
 OpenBabel08281820523D

 14 13  0  0  0  0  0  0  0  0999 V2000
   -1.6338   -1.4147   -1.1662 C   0  0  0  0  0  0  0  0  0  0  0  0
   -0.2650   -1.5824   -1.1120 C   0  0  0  0  0  0  0  0  0  0  0  0
    0.5100   -0.4494   -0.7516 C   0  0  0  0  0  0  0  0  0  0  0  0
   -0.0251    0.8188   -0.4500 C   0  0  0  0  0  0  0  0  0  0  0  0
   -1.4136    0.9301   -0.5220 C   0  0  0  0  0  0  0  0  0  0  0  0
   -2.2078   -0.1607   -0.8720 C   0  0  0  0  0  0  0  0  0  0  0  0
   -2.2652   -2.2539   -1.4374 H   0  0  0  0  0  0  0  0  0  0  0  0
    0.2086   -2.5324   -1.3341 H   0  0  0  0  0  0  0  0  0  0  0  0
    0.6107    1.6942   -0.1714 H   0  0  0  0  0  0  0  0  0  0  0  0
   -1.8561    1.8951   -0.2959 H   0  0  0  0  0  0  0  0  0  0  0  0
    1.8685   -0.6115   -0.6963 N   0  0  0  0  0  0  0  0  0  0  0  0
    2.9763   -0.7896   -0.6652 N   0  0  0  0  0  0  0  0  0  0  0  0
    1.4883    3.4455    0.3366 Cl  0  0  0  0  0  0  0  0  0  0  0  0
   -3.2871   -0.0490   -0.9213 H   0  0  0  0  0  0  0  0  0  0  0  0
  1  2  2  0  0  0  0
  1  6  1  0  0  0  0
  2  3  1  0  0  0  0
  3 11  1  0  0  0  0
  3  4  2  0  0  0  0
  4  9  1  0  0  0  0
  5  4  1  0  0  0  0
  5 10  1  0  0  0  0
  6  5  2  0  0  0  0
  7  1  1  0  0  0  0
  8  2  1  0  0  0  0
 11 12  1  0  0  0  0
 14  6  1  0  0  0  0
M  RAD  3  11   2  12   3  13   2
M  END
