Coordinates from ORCA-job Ph-N2-Cl-B3LYPG-6-31G_dp-scan-d09-49-n400
 OpenBabel08281820523D

 14 13  0  0  0  0  0  0  0  0999 V2000
   -1.6520   -1.4564   -1.1758 C   0  0  0  0  0  0  0  0  0  0  0  0
   -0.2674   -1.5389   -1.0982 C   0  0  0  0  0  0  0  0  0  0  0  0
    0.4352   -0.3811   -0.7398 C   0  0  0  0  0  0  0  0  0  0  0  0
   -0.1740    0.8489   -0.4561 C   0  0  0  0  0  0  0  0  0  0  0  0
   -1.5635    0.8954   -0.5436 C   0  0  0  0  0  0  0  0  0  0  0  0
   -2.2946   -0.2424   -0.8992 C   0  0  0  0  0  0  0  0  0  0  0  0
   -2.2303   -2.3319   -1.4509 H   0  0  0  0  0  0  0  0  0  0  0  0
    0.2656   -2.4602   -1.3059 H   0  0  0  0  0  0  0  0  0  0  0  0
    0.4506    1.7049   -0.1840 H   0  0  0  0  0  0  0  0  0  0  0  0
   -2.0751    1.8287   -0.3315 H   0  0  0  0  0  0  0  0  0  0  0  0
    1.8347   -0.4560   -0.6609 N   0  0  0  0  0  0  0  0  0  0  0  0
    2.8537    0.0137   -0.4664 N   0  0  0  0  0  0  0  0  0  0  0  0
    2.5031    2.7009    0.2168 Cl  0  0  0  0  0  0  0  0  0  0  0  0
   -3.3773   -0.1855   -0.9633 H   0  0  0  0  0  0  0  0  0  0  0  0
  1  2  2  0  0  0  0
  1  6  1  0  0  0  0
  2  3  1  0  0  0  0
  3 11  1  0  0  0  0
  3  4  2  0  0  0  0
  4  9  1  0  0  0  0
  5  4  1  0  0  0  0
  5 10  1  0  0  0  0
  6  5  2  0  0  0  0
  7  1  1  0  0  0  0
  8  2  1  0  0  0  0
 11 12  2  0  0  0  0
 14  6  1  0  0  0  0
M  RAD  2  12   2  13   2
M  END
