Coordinates from ORCA-job Ph-N2-Cl-B3LYPG-6-31G_dp-scan-d09-49-n400
 OpenBabel08281820523D

 14 13  0  0  0  0  0  0  0  0999 V2000
   -1.6364   -1.4065   -1.1673 C   0  0  0  0  0  0  0  0  0  0  0  0
   -0.2702   -1.5946   -1.1181 C   0  0  0  0  0  0  0  0  0  0  0  0
    0.5216   -0.4740   -0.7545 C   0  0  0  0  0  0  0  0  0  0  0  0
    0.0046    0.8001   -0.4462 C   0  0  0  0  0  0  0  0  0  0  0  0
   -1.3819    0.9328   -0.5146 C   0  0  0  0  0  0  0  0  0  0  0  0
   -2.1923   -0.1455   -0.8659 C   0  0  0  0  0  0  0  0  0  0  0  0
   -2.2807   -2.2353   -1.4404 H   0  0  0  0  0  0  0  0  0  0  0  0
    0.1891   -2.5500   -1.3468 H   0  0  0  0  0  0  0  0  0  0  0  0
    0.6389    1.6754   -0.1687 H   0  0  0  0  0  0  0  0  0  0  0  0
   -1.8045    1.9056   -0.2840 H   0  0  0  0  0  0  0  0  0  0  0  0
    1.8774   -0.6487   -0.7006 N   0  0  0  0  0  0  0  0  0  0  0  0
    2.9866   -0.8193   -0.6667 N   0  0  0  0  0  0  0  0  0  0  0  0
    1.3265    3.5186    0.3263 Cl  0  0  0  0  0  0  0  0  0  0  0  0
   -3.2700   -0.0188   -0.9113 H   0  0  0  0  0  0  0  0  0  0  0  0
  1  2  2  0  0  0  0
  1  6  1  0  0  0  0
  2  3  1  0  0  0  0
  3 11  1  0  0  0  0
  3  4  2  0  0  0  0
  4  9  1  0  0  0  0
  5  4  1  0  0  0  0
  5 10  1  0  0  0  0
  6  5  2  0  0  0  0
  7  1  1  0  0  0  0
  8  2  1  0  0  0  0
 11 12  1  0  0  0  0
 14  6  1  0  0  0  0
M  RAD  3  11   2  12   3  13   2
M  END
