Coordinates from ORCA-job Ph-N2-Cl-B3LYPG-6-31G_dp-scan-d09-49-n400
 OpenBabel08281820523D

 14 13  0  0  0  0  0  0  0  0999 V2000
   -1.6576   -1.4534   -1.1750 C   0  0  0  0  0  0  0  0  0  0  0  0
   -0.2762   -1.5626   -1.1051 C   0  0  0  0  0  0  0  0  0  0  0  0
    0.4430   -0.4121   -0.7481 C   0  0  0  0  0  0  0  0  0  0  0  0
   -0.1362    0.8320   -0.4589 C   0  0  0  0  0  0  0  0  0  0  0  0
   -1.5258    0.8991   -0.5405 C   0  0  0  0  0  0  0  0  0  0  0  0
   -2.2765   -0.2260   -0.8934 C   0  0  0  0  0  0  0  0  0  0  0  0
   -2.2541   -2.3172   -1.4476 H   0  0  0  0  0  0  0  0  0  0  0  0
    0.2394   -2.4930   -1.3163 H   0  0  0  0  0  0  0  0  0  0  0  0
    0.5079    1.6847   -0.1869 H   0  0  0  0  0  0  0  0  0  0  0  0
   -2.0200    1.8410   -0.3251 H   0  0  0  0  0  0  0  0  0  0  0  0
    1.8361   -0.4905   -0.6705 N   0  0  0  0  0  0  0  0  0  0  0  0
    2.8916   -0.1232   -0.5002 N   0  0  0  0  0  0  0  0  0  0  0  0
    2.2956    2.9123    0.2610 Cl  0  0  0  0  0  0  0  0  0  0  0  0
   -3.3585   -0.1511   -0.9522 H   0  0  0  0  0  0  0  0  0  0  0  0
  1  2  2  0  0  0  0
  1  6  1  0  0  0  0
  2  3  1  0  0  0  0
  3 11  1  0  0  0  0
  3  4  2  0  0  0  0
  4  9  1  0  0  0  0
  5  4  1  0  0  0  0
  5 10  1  0  0  0  0
  6  5  2  0  0  0  0
  7  1  1  0  0  0  0
  8  2  1  0  0  0  0
 11 12  1  0  0  0  0
 14  6  1  0  0  0  0
M  RAD  3  11   2  12   3  13   2
M  END
