Coordinates from ORCA-job Ph-N2-Cl-B3LYPG-6-31G_dp-scan-d09-49-n400
 OpenBabel08281820523D

 14 13  0  0  0  0  0  0  0  0999 V2000
   -1.6558   -1.4555   -1.1757 C   0  0  0  0  0  0  0  0  0  0  0  0
   -0.2725   -1.5517   -1.1020 C   0  0  0  0  0  0  0  0  0  0  0  0
    0.4384   -0.3980   -0.7444 C   0  0  0  0  0  0  0  0  0  0  0  0
   -0.1553    0.8395   -0.4578 C   0  0  0  0  0  0  0  0  0  0  0  0
   -1.5449    0.8966   -0.5422 C   0  0  0  0  0  0  0  0  0  0  0  0
   -2.2861   -0.2348   -0.8965 C   0  0  0  0  0  0  0  0  0  0  0  0
   -2.2434   -2.3251   -1.4495 H   0  0  0  0  0  0  0  0  0  0  0  0
    0.2515   -2.4777   -1.3116 H   0  0  0  0  0  0  0  0  0  0  0  0
    0.4797    1.6929   -0.1861 H   0  0  0  0  0  0  0  0  0  0  0  0
   -2.0477    1.8343   -0.3284 H   0  0  0  0  0  0  0  0  0  0  0  0
    1.8354   -0.4743   -0.6659 N   0  0  0  0  0  0  0  0  0  0  0  0
    2.8706   -0.0485   -0.4816 N   0  0  0  0  0  0  0  0  0  0  0  0
    2.4073    2.8108    0.2405 Cl  0  0  0  0  0  0  0  0  0  0  0  0
   -3.3685   -0.1685   -0.9577 H   0  0  0  0  0  0  0  0  0  0  0  0
  1  2  2  0  0  0  0
  1  6  1  0  0  0  0
  2  3  1  0  0  0  0
  3 11  1  0  0  0  0
  3  4  2  0  0  0  0
  4  9  1  0  0  0  0
  5  4  1  0  0  0  0
  5 10  1  0  0  0  0
  6  5  2  0  0  0  0
  7  1  1  0  0  0  0
  8  2  1  0  0  0  0
 11 12  2  0  0  0  0
 14  6  1  0  0  0  0
M  RAD  2  12   2  13   2
M  END
