Coordinates from ORCA-job Ph-N2-Cl-B3LYPG-6-31G_dp-scan-d09-49-n400
 OpenBabel08281820523D

 14 13  0  0  0  0  0  0  0  0999 V2000
   -1.4401   -1.4701   -1.1547 C   0  0  0  0  0  0  0  0  0  0  0  0
   -0.0923   -1.1904   -0.9593 C   0  0  0  0  0  0  0  0  0  0  0  0
    0.2732    0.1171   -0.6093 C   0  0  0  0  0  0  0  0  0  0  0  0
   -0.6710    1.1335   -0.4528 C   0  0  0  0  0  0  0  0  0  0  0  0
   -2.0179    0.8350   -0.6523 C   0  0  0  0  0  0  0  0  0  0  0  0
   -2.3997   -0.4618   -1.0023 C   0  0  0  0  0  0  0  0  0  0  0  0
   -1.7456   -2.4752   -1.4276 H   0  0  0  0  0  0  0  0  0  0  0  0
    0.6686   -1.9551   -1.0726 H   0  0  0  0  0  0  0  0  0  0  0  0
   -0.3386    2.1289   -0.1801 H   0  0  0  0  0  0  0  0  0  0  0  0
   -2.7654    1.6126   -0.5347 H   0  0  0  0  0  0  0  0  0  0  0  0
    1.6368    0.4794   -0.3949 N   0  0  0  0  0  0  0  0  0  0  0  0
    2.5933   -0.1870   -0.4652 N   0  0  0  0  0  0  0  0  0  0  0  0
    4.4565    1.0648    0.0057 Cl  0  0  0  0  0  0  0  0  0  0  0  0
   -3.4493   -0.6916   -1.1589 H   0  0  0  0  0  0  0  0  0  0  0  0
  1  6  2  0  0  0  0
  1  2  1  0  0  0  0
  2  3  2  0  0  0  0
  3  4  1  0  0  0  0
  3 11  1  0  0  0  0
  4  9  1  0  0  0  0
  5 10  1  0  0  0  0
  5  4  2  0  0  0  0
  6  5  1  0  0  0  0
  7  1  1  0  0  0  0
  8  2  1  0  0  0  0
 12 11  2  0  0  0  0
 14  6  1  0  0  0  0
M  RAD  2  12   2  13   2
M  END
