Coordinates from ORCA-job Ph-N2-Cl-B3LYPG-6-31G_dp-scan-d09-49-n400
 OpenBabel08281820523D

 14 13  0  0  0  0  0  0  0  0999 V2000
   -1.5416   -1.4118   -1.1566 C   0  0  0  0  0  0  0  0  0  0  0  0
   -0.1579   -1.3917   -1.0522 C   0  0  0  0  0  0  0  0  0  0  0  0
    0.4528   -0.1790   -0.6862 C   0  0  0  0  0  0  0  0  0  0  0  0
   -0.2534    0.9867   -0.4269 C   0  0  0  0  0  0  0  0  0  0  0  0
   -1.6435    0.9362   -0.5401 C   0  0  0  0  0  0  0  0  0  0  0  0
   -2.2835   -0.2502   -0.9014 C   0  0  0  0  0  0  0  0  0  0  0  0
   -2.0421   -2.3327   -1.4378 H   0  0  0  0  0  0  0  0  0  0  0  0
    0.4422   -2.2745   -1.2444 H   0  0  0  0  0  0  0  0  0  0  0  0
    0.3101    1.8808   -0.1487 H   0  0  0  0  0  0  0  0  0  0  0  0
   -2.2225    1.8323   -0.3432 H   0  0  0  0  0  0  0  0  0  0  0  0
    1.8903   -0.2143   -0.5927 N   0  0  0  0  0  0  0  0  0  0  0  0
    2.7521   -0.9435   -0.7245 N   0  0  0  0  0  0  0  0  0  0  0  0
    2.3714    2.5784    0.1832 Cl  0  0  0  0  0  0  0  0  0  0  0  0
   -3.3658   -0.2767   -0.9872 H   0  0  0  0  0  0  0  0  0  0  0  0
  1  2  2  0  0  0  0
  1  6  1  0  0  0  0
  2  3  1  0  0  0  0
  3 11  1  0  0  0  0
  3  4  2  0  0  0  0
  4  9  1  0  0  0  0
  5  4  1  0  0  0  0
  5 10  1  0  0  0  0
  6  5  2  0  0  0  0
  7  1  1  0  0  0  0
  8  2  1  0  0  0  0
 12 11  2  0  0  0  0
 14  6  1  0  0  0  0
M  RAD  2  12   2  13   2
M  END
