Coordinates from ORCA-job Ph-N2-Cl-B3LYPG-6-31G_dp-scan-d09-49-n400
 OpenBabel08281820523D

 14 13  0  0  0  0  0  0  0  0999 V2000
   -1.4357   -1.4693   -1.1539 C   0  0  0  0  0  0  0  0  0  0  0  0
   -0.0886   -1.1861   -0.9580 C   0  0  0  0  0  0  0  0  0  0  0  0
    0.2740    0.1222   -0.6081 C   0  0  0  0  0  0  0  0  0  0  0  0
   -0.6732    1.1360   -0.4524 C   0  0  0  0  0  0  0  0  0  0  0  0
   -2.0193    0.8344   -0.6526 C   0  0  0  0  0  0  0  0  0  0  0  0
   -2.3978   -0.4634   -1.0024 C   0  0  0  0  0  0  0  0  0  0  0  0
   -1.7386   -2.4752   -1.4265 H   0  0  0  0  0  0  0  0  0  0  0  0
    0.6740   -1.9492   -1.0705 H   0  0  0  0  0  0  0  0  0  0  0  0
   -0.3433    2.1323   -0.1797 H   0  0  0  0  0  0  0  0  0  0  0  0
   -2.7687    1.6104   -0.5356 H   0  0  0  0  0  0  0  0  0  0  0  0
    1.6365    0.4905   -0.3922 N   0  0  0  0  0  0  0  0  0  0  0  0
    2.5885   -0.1846   -0.4673 N   0  0  0  0  0  0  0  0  0  0  0  0
    4.4475    1.0378   -0.0000 Cl  0  0  0  0  0  0  0  0  0  0  0  0
   -3.4468   -0.6958   -1.1595 H   0  0  0  0  0  0  0  0  0  0  0  0
  1  6  2  0  0  0  0
  1  2  1  0  0  0  0
  2  3  2  0  0  0  0
  3  4  1  0  0  0  0
  3 11  1  0  0  0  0
  4  9  1  0  0  0  0
  5 10  1  0  0  0  0
  5  4  2  0  0  0  0
  6  5  1  0  0  0  0
  7  1  1  0  0  0  0
  8  2  1  0  0  0  0
 12 11  2  0  0  0  0
 14  6  1  0  0  0  0
M  RAD  2  12   2  13   2
M  END
