Coordinates from ORCA-job Ph-N2-Cl-B3LYPG-6-31G_dp-scan-d09-49-n400
 OpenBabel08281820523D

 14 13  0  0  0  0  0  0  0  0999 V2000
   -1.6516   -1.4476   -1.1725 C   0  0  0  0  0  0  0  0  0  0  0  0
   -0.2736   -1.5682   -1.1063 C   0  0  0  0  0  0  0  0  0  0  0  0
    0.4522   -0.4163   -0.7492 C   0  0  0  0  0  0  0  0  0  0  0  0
   -0.1166    0.8353   -0.4576 C   0  0  0  0  0  0  0  0  0  0  0  0
   -1.5069    0.9067   -0.5377 C   0  0  0  0  0  0  0  0  0  0  0  0
   -2.2629   -0.2136   -0.8891 C   0  0  0  0  0  0  0  0  0  0  0  0
   -2.2552   -2.3068   -1.4438 H   0  0  0  0  0  0  0  0  0  0  0  0
    0.2346   -2.5024   -1.3188 H   0  0  0  0  0  0  0  0  0  0  0  0
    0.5380    1.6914   -0.1842 H   0  0  0  0  0  0  0  0  0  0  0  0
   -1.9945    1.8518   -0.3212 H   0  0  0  0  0  0  0  0  0  0  0  0
    1.8332   -0.4912   -0.6717 N   0  0  0  0  0  0  0  0  0  0  0  0
    2.9290   -0.2791   -0.5393 N   0  0  0  0  0  0  0  0  0  0  0  0
    2.1278    3.0140    0.2788 Cl  0  0  0  0  0  0  0  0  0  0  0  0
   -3.3447   -0.1340   -0.9463 H   0  0  0  0  0  0  0  0  0  0  0  0
  1  2  2  0  0  0  0
  1  6  1  0  0  0  0
  2  3  1  0  0  0  0
  3 11  1  0  0  0  0
  3  4  2  0  0  0  0
  4  9  1  0  0  0  0
  5  4  1  0  0  0  0
  5 10  1  0  0  0  0
  6  5  2  0  0  0  0
  7  1  1  0  0  0  0
  8  2  1  0  0  0  0
 11 12  1  0  0  0  0
 14  6  1  0  0  0  0
M  RAD  3  11   2  12   3  13   2
M  END
