Coordinates from ORCA-job Ph-N2-Cl-B3LYPG-6-31G_dp-scan-d09-49-n400
 OpenBabel08281820523D

 14 13  0  0  0  0  0  0  0  0999 V2000
   -1.5651   -1.4177   -1.1596 C   0  0  0  0  0  0  0  0  0  0  0  0
   -0.1821   -1.4388   -1.0659 C   0  0  0  0  0  0  0  0  0  0  0  0
    0.4628   -0.2405   -0.7017 C   0  0  0  0  0  0  0  0  0  0  0  0
   -0.2040    0.9479   -0.4340 C   0  0  0  0  0  0  0  0  0  0  0  0
   -1.5957    0.9343   -0.5375 C   0  0  0  0  0  0  0  0  0  0  0  0
   -2.2704   -0.2334   -0.8960 C   0  0  0  0  0  0  0  0  0  0  0  0
   -2.0953   -2.3225   -1.4384 H   0  0  0  0  0  0  0  0  0  0  0  0
    0.3928   -2.3372   -1.2640 H   0  0  0  0  0  0  0  0  0  0  0  0
    0.3905    1.8327   -0.1566 H   0  0  0  0  0  0  0  0  0  0  0  0
   -2.1478    1.8460   -0.3347 H   0  0  0  0  0  0  0  0  0  0  0  0
    1.8864   -0.3141   -0.6199 N   0  0  0  0  0  0  0  0  0  0  0  0
    2.7978   -0.9778   -0.7316 N   0  0  0  0  0  0  0  0  0  0  0  0
    2.1923    2.8905    0.2551 Cl  0  0  0  0  0  0  0  0  0  0  0  0
   -3.3537   -0.2295   -0.9739 H   0  0  0  0  0  0  0  0  0  0  0  0
  1  2  2  0  0  0  0
  1  6  1  0  0  0  0
  2  3  1  0  0  0  0
  3 11  1  0  0  0  0
  3  4  2  0  0  0  0
  4  9  1  0  0  0  0
  5  4  1  0  0  0  0
  5 10  1  0  0  0  0
  6  5  2  0  0  0  0
  7  1  1  0  0  0  0
  8  2  1  0  0  0  0
 12 11  2  0  0  0  0
 14  6  1  0  0  0  0
M  RAD  2  12   2  13   2
M  END
