Coordinates from ORCA-job Ph-N2-Cl-B3LYPG-6-31G_dp-scan-d09-49-n400
 OpenBabel08281820523D

 14 13  0  0  0  0  0  0  0  0999 V2000
   -1.4379   -1.4697   -1.1543 C   0  0  0  0  0  0  0  0  0  0  0  0
   -0.0904   -1.1882   -0.9586 C   0  0  0  0  0  0  0  0  0  0  0  0
    0.2736    0.1197   -0.6087 C   0  0  0  0  0  0  0  0  0  0  0  0
   -0.6721    1.1347   -0.4526 C   0  0  0  0  0  0  0  0  0  0  0  0
   -2.0186    0.8347   -0.6524 C   0  0  0  0  0  0  0  0  0  0  0  0
   -2.3988   -0.4626   -1.0023 C   0  0  0  0  0  0  0  0  0  0  0  0
   -1.7420   -2.4752   -1.4271 H   0  0  0  0  0  0  0  0  0  0  0  0
    0.6713   -1.9521   -1.0716 H   0  0  0  0  0  0  0  0  0  0  0  0
   -0.3410    2.1306   -0.1799 H   0  0  0  0  0  0  0  0  0  0  0  0
   -2.7670    1.6115   -0.5352 H   0  0  0  0  0  0  0  0  0  0  0  0
    1.6366    0.4850   -0.3936 N   0  0  0  0  0  0  0  0  0  0  0  0
    2.5909   -0.1858   -0.4662 N   0  0  0  0  0  0  0  0  0  0  0  0
    4.4521    1.0511    0.0028 Cl  0  0  0  0  0  0  0  0  0  0  0  0
   -3.4480   -0.6937   -1.1592 H   0  0  0  0  0  0  0  0  0  0  0  0
  1  6  2  0  0  0  0
  1  2  1  0  0  0  0
  2  3  2  0  0  0  0
  3  4  1  0  0  0  0
  3 11  1  0  0  0  0
  4  9  1  0  0  0  0
  5 10  1  0  0  0  0
  5  4  2  0  0  0  0
  6  5  1  0  0  0  0
  7  1  1  0  0  0  0
  8  2  1  0  0  0  0
 12 11  2  0  0  0  0
 14  6  1  0  0  0  0
M  RAD  2  12   2  13   2
M  END
