Coordinates from ORCA-job Ph-N2-Cl-B3LYPG-6-31G_dp-scan-d09-49-n400
 OpenBabel08281820523D

 14 13  0  0  0  0  0  0  0  0999 V2000
   -1.5784   -1.4188   -1.1605 C   0  0  0  0  0  0  0  0  0  0  0  0
   -0.1966   -1.4672   -1.0742 C   0  0  0  0  0  0  0  0  0  0  0  0
    0.4734   -0.2799   -0.7116 C   0  0  0  0  0  0  0  0  0  0  0  0
   -0.1684    0.9238   -0.4384 C   0  0  0  0  0  0  0  0  0  0  0  0
   -1.5605    0.9342   -0.5353 C   0  0  0  0  0  0  0  0  0  0  0  0
   -2.2586   -0.2201   -0.8917 C   0  0  0  0  0  0  0  0  0  0  0  0
   -2.1280   -2.3124   -1.4373 H   0  0  0  0  0  0  0  0  0  0  0  0
    0.3602   -2.3762   -1.2761 H   0  0  0  0  0  0  0  0  0  0  0  0
    0.4393    1.8067   -0.1608 H   0  0  0  0  0  0  0  0  0  0  0  0
   -2.0933    1.8564   -0.3285 H   0  0  0  0  0  0  0  0  0  0  0  0
    1.8858   -0.3821   -0.6387 N   0  0  0  0  0  0  0  0  0  0  0  0
    2.8292   -0.9983   -0.7358 N   0  0  0  0  0  0  0  0  0  0  0  0
    2.0467    3.0694    0.2942 Cl  0  0  0  0  0  0  0  0  0  0  0  0
   -3.3421   -0.1955   -0.9640 H   0  0  0  0  0  0  0  0  0  0  0  0
  1  2  2  0  0  0  0
  1  6  1  0  0  0  0
  2  3  1  0  0  0  0
  3 11  1  0  0  0  0
  3  4  2  0  0  0  0
  4  9  1  0  0  0  0
  5  4  1  0  0  0  0
  5 10  1  0  0  0  0
  6  5  2  0  0  0  0
  7  1  1  0  0  0  0
  8  2  1  0  0  0  0
 12 11  2  0  0  0  0
 14  6  1  0  0  0  0
M  RAD  2  12   2  13   2
M  END
