Coordinates from ORCA-job Ph-N2-Cl-B3LYPG-6-31G_dp-scan-d09-49-n400
 OpenBabel08281820523D

 14 13  0  0  0  0  0  0  0  0999 V2000
   -1.6552   -1.4558   -1.1758 C   0  0  0  0  0  0  0  0  0  0  0  0
   -0.2717   -1.5494   -1.1013 C   0  0  0  0  0  0  0  0  0  0  0  0
    0.4376   -0.3949   -0.7436 C   0  0  0  0  0  0  0  0  0  0  0  0
   -0.1590    0.8411   -0.4575 C   0  0  0  0  0  0  0  0  0  0  0  0
   -1.5486    0.8962   -0.5425 C   0  0  0  0  0  0  0  0  0  0  0  0
   -2.2879   -0.2364   -0.8971 C   0  0  0  0  0  0  0  0  0  0  0  0
   -2.2410   -2.3265   -1.4499 H   0  0  0  0  0  0  0  0  0  0  0  0
    0.2541   -2.4745   -1.3106 H   0  0  0  0  0  0  0  0  0  0  0  0
    0.4737    1.6951   -0.1857 H   0  0  0  0  0  0  0  0  0  0  0  0
   -2.0532    1.8330   -0.3290 H   0  0  0  0  0  0  0  0  0  0  0  0
    1.8354   -0.4712   -0.6650 N   0  0  0  0  0  0  0  0  0  0  0  0
    2.8664   -0.0341   -0.4780 N   0  0  0  0  0  0  0  0  0  0  0  0
    2.4285    2.7894    0.2359 Cl  0  0  0  0  0  0  0  0  0  0  0  0
   -3.3704   -0.1720   -0.9588 H   0  0  0  0  0  0  0  0  0  0  0  0
  1  2  2  0  0  0  0
  1  6  1  0  0  0  0
  2  3  1  0  0  0  0
  3 11  1  0  0  0  0
  3  4  2  0  0  0  0
  4  9  1  0  0  0  0
  5  4  1  0  0  0  0
  5 10  1  0  0  0  0
  6  5  2  0  0  0  0
  7  1  1  0  0  0  0
  8  2  1  0  0  0  0
 11 12  2  0  0  0  0
 14  6  1  0  0  0  0
M  RAD  2  12   2  13   2
M  END
