Coordinates from ORCA-job Ph-N2-Cl-B3LYPG-6-31G_dp-scan-d09-49-n400
 OpenBabel08281820523D

 14 14  0  0  1  0  0  0  0  0999 V2000
   -1.4975   -1.0953   -1.4486 C   0  0  0  0  0  0  0  0  0  0  0  0
   -0.1503   -1.2778   -1.4377 C   0  0  0  0  0  0  0  0  0  0  0  0
    0.6622   -0.3443   -0.6896 C   0  0  1  0  0  0  0  0  0  0  0  0
    0.1256    0.9359   -0.2293 C   0  0  2  0  0  0  0  0  0  0  0  0
   -1.3220    0.9168   -0.0754 C   0  0  0  0  0  0  0  0  0  0  0  0
   -2.0869   -0.0261   -0.6872 C   0  0  0  0  0  0  0  0  0  0  0  0
   -2.1336   -1.7797   -2.0000 H   0  0  0  0  0  0  0  0  0  0  0  0
    0.3263   -2.1150   -1.9361 H   0  0  0  0  0  0  0  0  0  0  0  0
    0.7026    1.4417    0.5357 H   0  0  0  0  0  0  0  0  0  0  0  0
   -1.7743    1.7384    0.4689 H   0  0  0  0  0  0  0  0  0  0  0  0
    1.8641   -0.7771   -0.3121 N   0  0  0  0  0  0  0  0  0  0  0  0
    2.8377   -1.2748    0.0127 N   0  0  0  0  0  0  0  0  0  0  0  0
    0.3236    2.5734   -1.6555 Cl  0  0  0  0  0  0  0  0  0  0  0  0
   -3.1688    0.0239   -0.6046 H   0  0  0  0  0  0  0  0  0  0  0  0
  1  2  2  0  0  0  0
  1  6  1  0  0  0  0
  2  3  1  0  0  0  0
  3 11  1  1  0  0  0
  3  4  1  0  0  0  0
  4  5  1  0  0  0  0
  4  9  1  1  0  0  0
  5 10  1  0  0  0  0
  6 14  1  0  0  0  0
  6  5  2  0  0  0  0
  7  1  1  0  0  0  0
  8  2  1  0  0  0  0
 11 12  1  0  0  0  0
 13  4  1  0  0  0  0
M  RAD  3   3   2  11   2  12   3
M  END
