Coordinates from ORCA-job Ph-N2-Cl-B3LYPG-6-31G_dp-scan-d09-49-n400
 OpenBabel08281820523D

 14 13  0  0  0  0  0  0  0  0999 V2000
   -1.5760   -1.4188   -1.1604 C   0  0  0  0  0  0  0  0  0  0  0  0
   -0.1939   -1.4620   -1.0727 C   0  0  0  0  0  0  0  0  0  0  0  0
    0.4713   -0.2725   -0.7098 C   0  0  0  0  0  0  0  0  0  0  0  0
   -0.1752    0.9283   -0.4376 C   0  0  0  0  0  0  0  0  0  0  0  0
   -1.5673    0.9341   -0.5358 C   0  0  0  0  0  0  0  0  0  0  0  0
   -2.2610   -0.2227   -0.8925 C   0  0  0  0  0  0  0  0  0  0  0  0
   -2.1219   -2.3146   -1.4375 H   0  0  0  0  0  0  0  0  0  0  0  0
    0.3664   -2.3689   -1.2739 H   0  0  0  0  0  0  0  0  0  0  0  0
    0.4302    1.8115   -0.1600 H   0  0  0  0  0  0  0  0  0  0  0  0
   -2.1039    1.8543   -0.3298 H   0  0  0  0  0  0  0  0  0  0  0  0
    1.8859   -0.3696   -0.6352 N   0  0  0  0  0  0  0  0  0  0  0  0
    2.8230   -0.9956   -0.7354 N   0  0  0  0  0  0  0  0  0  0  0  0
    2.0754    3.0384    0.2877 Cl  0  0  0  0  0  0  0  0  0  0  0  0
   -3.3444   -0.2021   -0.9659 H   0  0  0  0  0  0  0  0  0  0  0  0
  1  2  2  0  0  0  0
  1  6  1  0  0  0  0
  2  3  1  0  0  0  0
  3 11  1  0  0  0  0
  3  4  2  0  0  0  0
  4  9  1  0  0  0  0
  5  4  1  0  0  0  0
  5 10  1  0  0  0  0
  6  5  2  0  0  0  0
  7  1  1  0  0  0  0
  8  2  1  0  0  0  0
 12 11  2  0  0  0  0
 14  6  1  0  0  0  0
M  RAD  2  12   2  13   2
M  END
