Coordinates from ORCA-job Ph-N2-Cl-B3LYPG-6-31G_dp-scan-d09-49-n400
 OpenBabel08281820523D

 14 14  0  0  0  0  0  0  0  0999 V2000
   -1.3737   -1.4562   -1.1446 C   0  0  0  0  0  0  0  0  0  0  0  0
   -0.0376   -1.1324   -0.9373 C   0  0  0  0  0  0  0  0  0  0  0  0
    0.2932    0.1854   -0.5875 C   0  0  0  0  0  0  0  0  0  0  0  0
   -0.6931    1.1652   -0.4448 C   0  0  0  0  0  0  0  0  0  0  0  0
   -2.0293    0.8276   -0.6563 C   0  0  0  0  0  0  0  0  0  0  0  0
   -2.3684   -0.4804   -1.0059 C   0  0  0  0  0  0  0  0  0  0  0  0
   -1.6444   -2.4718   -1.4167 H   0  0  0  0  0  0  0  0  0  0  0  0
    0.7445   -1.8763   -1.0416 H   0  0  0  0  0  0  0  0  0  0  0  0
   -0.3943    2.1713   -0.1711 H   0  0  0  0  0  0  0  0  0  0  0  0
   -2.8011    1.5829   -0.5479 H   0  0  0  0  0  0  0  0  0  0  0  0
    1.6336    0.6335   -0.3521 N   0  0  0  0  0  0  0  0  0  0  0  0
    2.5297   -0.1580   -0.4772 N   0  0  0  0  0  0  0  0  0  0  0  0
    4.2581    0.6934   -0.1036 Cl  0  0  0  0  0  0  0  0  0  0  0  0
   -3.4087   -0.7442   -1.1720 H   0  0  0  0  0  0  0  0  0  0  0  0
  1  6  2  0  0  0  0
  1  2  1  0  0  0  0
  2  3  2  0  0  0  0
  3  4  1  0  0  0  0
  3 11  1  0  0  0  0
  4  9  1  0  0  0  0
  5 10  1  0  0  0  0
  5  4  2  0  0  0  0
  6  5  1  0  0  0  0
  7  1  1  0  0  0  0
  8  2  1  0  0  0  0
 12 11  1  0  0  0  0
 12 13  1  0  0  0  0
 14  6  1  0  0  0  0
M  RAD  2  11   2  12   2
M  END
