Coordinates from ORCA-job Ph-N2-Cl-B3LYPG-6-31G_dp-scan-d09-49-n400
 OpenBabel08281820523D

 14 13  0  0  0  0  0  0  0  0999 V2000
   -1.6370   -1.4030   -1.1687 C   0  0  0  0  0  0  0  0  0  0  0  0
   -0.2718   -1.5982   -1.1212 C   0  0  0  0  0  0  0  0  0  0  0  0
    0.5257   -0.4824   -0.7543 C   0  0  0  0  0  0  0  0  0  0  0  0
    0.0147    0.7931   -0.4423 C   0  0  0  0  0  0  0  0  0  0  0  0
   -1.3710    0.9336   -0.5101 C   0  0  0  0  0  0  0  0  0  0  0  0
   -2.1867   -0.1400   -0.8633 C   0  0  0  0  0  0  0  0  0  0  0  0
   -2.2856   -2.2277   -1.4440 H   0  0  0  0  0  0  0  0  0  0  0  0
    0.1828   -2.5549   -1.3536 H   0  0  0  0  0  0  0  0  0  0  0  0
    0.6486    1.6681   -0.1653 H   0  0  0  0  0  0  0  0  0  0  0  0
   -1.7864    1.9089   -0.2775 H   0  0  0  0  0  0  0  0  0  0  0  0
    1.8804   -0.6615   -0.7003 N   0  0  0  0  0  0  0  0  0  0  0  0
    2.9901   -0.8299   -0.6654 N   0  0  0  0  0  0  0  0  0  0  0  0
    1.2689    3.5421    0.3145 Cl  0  0  0  0  0  0  0  0  0  0  0  0
   -3.2639   -0.0082   -0.9074 H   0  0  0  0  0  0  0  0  0  0  0  0
  1  2  2  0  0  0  0
  1  6  1  0  0  0  0
  2  3  1  0  0  0  0
  3 11  1  0  0  0  0
  3  4  2  0  0  0  0
  4  9  1  0  0  0  0
  5  4  1  0  0  0  0
  5 10  1  0  0  0  0
  6  5  2  0  0  0  0
  7  1  1  0  0  0  0
  8  2  1  0  0  0  0
 11 12  1  0  0  0  0
 14  6  1  0  0  0  0
M  RAD  3  11   2  12   3  13   2
M  END
