Coordinates from ORCA-job Ph-N2-Cl-B3LYPG-6-31G_dp-scan-d09-49-n400
 OpenBabel08281820523D

 14 13  0  0  0  0  0  0  0  0999 V2000
   -1.5724   -1.4186   -1.1602 C   0  0  0  0  0  0  0  0  0  0  0  0
   -0.1899   -1.4540   -1.0704 C   0  0  0  0  0  0  0  0  0  0  0  0
    0.4678   -0.2613   -0.7069 C   0  0  0  0  0  0  0  0  0  0  0  0
   -0.1858    0.9350   -0.4364 C   0  0  0  0  0  0  0  0  0  0  0  0
   -1.5777    0.9341   -0.5364 C   0  0  0  0  0  0  0  0  0  0  0  0
   -2.2647   -0.2267   -0.8939 C   0  0  0  0  0  0  0  0  0  0  0  0
   -2.1128   -2.3176   -1.4379 H   0  0  0  0  0  0  0  0  0  0  0  0
    0.3757   -2.3579   -1.2704 H   0  0  0  0  0  0  0  0  0  0  0  0
    0.4167    1.8181   -0.1591 H   0  0  0  0  0  0  0  0  0  0  0  0
   -2.1198    1.8513   -0.3316 H   0  0  0  0  0  0  0  0  0  0  0  0
    1.8857   -0.3490   -0.6296 N   0  0  0  0  0  0  0  0  0  0  0  0
    2.8145   -0.9873   -0.7335 N   0  0  0  0  0  0  0  0  0  0  0  0
    2.1194    2.9860    0.2763 Cl  0  0  0  0  0  0  0  0  0  0  0  0
   -3.3481   -0.2120   -0.9688 H   0  0  0  0  0  0  0  0  0  0  0  0
  1  2  2  0  0  0  0
  1  6  1  0  0  0  0
  2  3  1  0  0  0  0
  3 11  1  0  0  0  0
  3  4  2  0  0  0  0
  4  9  1  0  0  0  0
  5  4  1  0  0  0  0
  5 10  1  0  0  0  0
  6  5  2  0  0  0  0
  7  1  1  0  0  0  0
  8  2  1  0  0  0  0
 12 11  2  0  0  0  0
 14  6  1  0  0  0  0
M  RAD  2  12   2  13   2
M  END
