Coordinates from ORCA-job Ph-N2-Cl-B3LYPG-6-31G_dp-scan-d09-49-n400
 OpenBabel08281820523D

 14 13  0  0  0  0  0  0  0  0999 V2000
   -1.5700   -1.4184   -1.1600 C   0  0  0  0  0  0  0  0  0  0  0  0
   -0.1873   -1.4489   -1.0689 C   0  0  0  0  0  0  0  0  0  0  0  0
    0.4660   -0.2543   -0.7052 C   0  0  0  0  0  0  0  0  0  0  0  0
   -0.1920    0.9393   -0.4356 C   0  0  0  0  0  0  0  0  0  0  0  0
   -1.5839    0.9342   -0.5368 C   0  0  0  0  0  0  0  0  0  0  0  0
   -2.2667   -0.2290   -0.8946 C   0  0  0  0  0  0  0  0  0  0  0  0
   -2.1069   -2.3194   -1.4381 H   0  0  0  0  0  0  0  0  0  0  0  0
    0.3815   -2.3509   -1.2682 H   0  0  0  0  0  0  0  0  0  0  0  0
    0.4079    1.8229   -0.1583 H   0  0  0  0  0  0  0  0  0  0  0  0
   -2.1294    1.8495   -0.3327 H   0  0  0  0  0  0  0  0  0  0  0  0
    1.8859   -0.3371   -0.6264 N   0  0  0  0  0  0  0  0  0  0  0  0
    2.8088   -0.9842   -0.7330 N   0  0  0  0  0  0  0  0  0  0  0  0
    2.1448    2.9544    0.2694 Cl  0  0  0  0  0  0  0  0  0  0  0  0
   -3.3501   -0.2180   -0.9706 H   0  0  0  0  0  0  0  0  0  0  0  0
  1  2  2  0  0  0  0
  1  6  1  0  0  0  0
  2  3  1  0  0  0  0
  3 11  1  0  0  0  0
  3  4  2  0  0  0  0
  4  9  1  0  0  0  0
  5  4  1  0  0  0  0
  5 10  1  0  0  0  0
  6  5  2  0  0  0  0
  7  1  1  0  0  0  0
  8  2  1  0  0  0  0
 12 11  2  0  0  0  0
 14  6  1  0  0  0  0
M  RAD  2  12   2  13   2
M  END
