Coordinates from ORCA-job Ph-N2-Cl-B3LYPG-6-31G_dp-scan-d09-49-n400
 OpenBabel08281820523D

 14 14  0  0  0  0  0  0  0  0999 V2000
   -1.3915   -1.4602   -1.1472 C   0  0  0  0  0  0  0  0  0  0  0  0
   -0.0524   -1.1468   -0.9432 C   0  0  0  0  0  0  0  0  0  0  0  0
    0.2859    0.1685   -0.5936 C   0  0  0  0  0  0  0  0  0  0  0  0
   -0.6894    1.1578   -0.4471 C   0  0  0  0  0  0  0  0  0  0  0  0
   -2.0283    0.8292   -0.6555 C   0  0  0  0  0  0  0  0  0  0  0  0
   -2.3777   -0.4762   -1.0049 C   0  0  0  0  0  0  0  0  0  0  0  0
   -1.6707   -2.4733   -1.4193 H   0  0  0  0  0  0  0  0  0  0  0  0
    0.7248   -1.8957   -1.0497 H   0  0  0  0  0  0  0  0  0  0  0  0
   -0.3824    2.1614   -0.1737 H   0  0  0  0  0  0  0  0  0  0  0  0
   -2.7943    1.5900   -0.5448 H   0  0  0  0  0  0  0  0  0  0  0  0
    1.6346    0.5946   -0.3634 N   0  0  0  0  0  0  0  0  0  0  0  0
    2.5431   -0.1655   -0.4757 N   0  0  0  0  0  0  0  0  0  0  0  0
    4.3273    0.7881   -0.0722 Cl  0  0  0  0  0  0  0  0  0  0  0  0
   -3.4204   -0.7319   -1.1684 H   0  0  0  0  0  0  0  0  0  0  0  0
  1  6  2  0  0  0  0
  1  2  1  0  0  0  0
  2  3  2  0  0  0  0
  3  4  1  0  0  0  0
  3 11  1  0  0  0  0
  4  9  1  0  0  0  0
  5 10  1  0  0  0  0
  5  4  2  0  0  0  0
  6  5  1  0  0  0  0
  7  1  1  0  0  0  0
  8  2  1  0  0  0  0
 12 11  1  0  0  0  0
 12 13  1  0  0  0  0
 14  6  1  0  0  0  0
M  RAD  2  11   2  12   2
M  END
