Coordinates from ORCA-job Ph-N2-Cl-B3LYPG-6-31G_dp-scan-d09-49-n400
 OpenBabel08281820523D

 14 13  0  0  0  0  0  0  0  0999 V2000
   -1.4987   -1.4811   -1.1616 C   0  0  0  0  0  0  0  0  0  0  0  0
   -0.1396   -1.2523   -0.9793 C   0  0  0  0  0  0  0  0  0  0  0  0
    0.2721    0.0423   -0.6294 C   0  0  0  0  0  0  0  0  0  0  0  0
   -0.6298    1.0954   -0.4596 C   0  0  0  0  0  0  0  0  0  0  0  0
   -1.9871    0.8444   -0.6474 C   0  0  0  0  0  0  0  0  0  0  0  0
   -2.4180   -0.4379   -0.9969 C   0  0  0  0  0  0  0  0  0  0  0  0
   -1.8435   -2.4734   -1.4336 H   0  0  0  0  0  0  0  0  0  0  0  0
    0.5934   -2.0424   -1.1011 H   0  0  0  0  0  0  0  0  0  0  0  0
   -0.2589    2.0771   -0.1873 H   0  0  0  0  0  0  0  0  0  0  0  0
   -2.7054    1.6474   -0.5210 H   0  0  0  0  0  0  0  0  0  0  0  0
    1.6435    0.3272   -0.4328 N   0  0  0  0  0  0  0  0  0  0  0  0
    2.6634   -0.2082   -0.4721 N   0  0  0  0  0  0  0  0  0  0  0  0
    4.4940    1.4302    0.1069 Cl  0  0  0  0  0  0  0  0  0  0  0  0
   -3.4767   -0.6288   -1.1435 H   0  0  0  0  0  0  0  0  0  0  0  0
  1  6  2  0  0  0  0
  1  2  1  0  0  0  0
  2  3  2  0  0  0  0
  3  4  1  0  0  0  0
  3 11  1  0  0  0  0
  4  9  1  0  0  0  0
  5 10  1  0  0  0  0
  5  4  2  0  0  0  0
  6  5  1  0  0  0  0
  7  1  1  0  0  0  0
  8  2  1  0  0  0  0
 12 11  2  0  0  0  0
 14  6  1  0  0  0  0
M  RAD  2  12   2  13   2
M  END
