Coordinates from ORCA-job Ph-N2-Cl-B3LYPG-6-31G_dp-scan-d09-49-n400
 OpenBabel08281820523D

 14 13  0  0  0  0  0  0  0  0999 V2000
   -1.6563   -1.4500   -1.1737 C   0  0  0  0  0  0  0  0  0  0  0  0
   -0.2769   -1.5696   -1.1070 C   0  0  0  0  0  0  0  0  0  0  0  0
    0.4490   -0.4204   -0.7503 C   0  0  0  0  0  0  0  0  0  0  0  0
   -0.1195    0.8295   -0.4589 C   0  0  0  0  0  0  0  0  0  0  0  0
   -1.5094    0.9031   -0.5386 C   0  0  0  0  0  0  0  0  0  0  0  0
   -2.2667   -0.2171   -0.8903 C   0  0  0  0  0  0  0  0  0  0  0  0
   -2.2596   -2.3093   -1.4453 H   0  0  0  0  0  0  0  0  0  0  0  0
    0.2319   -2.5034   -1.3194 H   0  0  0  0  0  0  0  0  0  0  0  0
    0.5316    1.6838   -0.1862 H   0  0  0  0  0  0  0  0  0  0  0  0
   -1.9968    1.8482   -0.3220 H   0  0  0  0  0  0  0  0  0  0  0  0
    1.8360   -0.4998   -0.6734 N   0  0  0  0  0  0  0  0  0  0  0  0
    2.9151   -0.2130   -0.5226 N   0  0  0  0  0  0  0  0  0  0  0  0
    2.1787    2.9942    0.2760 Cl  0  0  0  0  0  0  0  0  0  0  0  0
   -3.3484   -0.1362   -0.9472 H   0  0  0  0  0  0  0  0  0  0  0  0
  1  2  2  0  0  0  0
  1  6  1  0  0  0  0
  2  3  1  0  0  0  0
  3 11  1  0  0  0  0
  3  4  2  0  0  0  0
  4  9  1  0  0  0  0
  5  4  1  0  0  0  0
  5 10  1  0  0  0  0
  6  5  2  0  0  0  0
  7  1  1  0  0  0  0
  8  2  1  0  0  0  0
 11 12  1  0  0  0  0
 14  6  1  0  0  0  0
M  RAD  3  11   2  12   3  13   2
M  END
