Coordinates from ORCA-job Ph-N2-Cl-B3LYPG-6-31G_dp-scan-d09-49-n400
 OpenBabel08281820523D

 14 13  0  0  0  0  0  0  0  0999 V2000
   -1.6371   -1.4046   -1.1682 C   0  0  0  0  0  0  0  0  0  0  0  0
   -0.2715   -1.5972   -1.1201 C   0  0  0  0  0  0  0  0  0  0  0  0
    0.5234   -0.4795   -0.7546 C   0  0  0  0  0  0  0  0  0  0  0  0
    0.0100    0.7957   -0.4440 C   0  0  0  0  0  0  0  0  0  0  0  0
   -1.3760    0.9331   -0.5120 C   0  0  0  0  0  0  0  0  0  0  0  0
   -2.1894   -0.1426   -0.8645 C   0  0  0  0  0  0  0  0  0  0  0  0
   -2.2842   -2.2310   -1.4426 H   0  0  0  0  0  0  0  0  0  0  0  0
    0.1848   -2.5534   -1.3510 H   0  0  0  0  0  0  0  0  0  0  0  0
    0.6453    1.6701   -0.1670 H   0  0  0  0  0  0  0  0  0  0  0  0
   -1.7944    1.9074   -0.2803 H   0  0  0  0  0  0  0  0  0  0  0  0
    1.8788   -0.6553   -0.7003 N   0  0  0  0  0  0  0  0  0  0  0  0
    2.9889   -0.8197   -0.6644 N   0  0  0  0  0  0  0  0  0  0  0  0
    1.2967    3.5299    0.3191 Cl  0  0  0  0  0  0  0  0  0  0  0  0
   -3.2668   -0.0130   -0.9091 H   0  0  0  0  0  0  0  0  0  0  0  0
  1  2  2  0  0  0  0
  1  6  1  0  0  0  0
  2  3  1  0  0  0  0
  3 11  1  0  0  0  0
  3  4  2  0  0  0  0
  4  9  1  0  0  0  0
  5  4  1  0  0  0  0
  5 10  1  0  0  0  0
  6  5  2  0  0  0  0
  7  1  1  0  0  0  0
  8  2  1  0  0  0  0
 11 12  1  0  0  0  0
 14  6  1  0  0  0  0
M  RAD  3  11   2  12   3  13   2
M  END
