Coordinates from ORCA-job Ph-N2-Cl-B3LYPG-6-31G_dp-scan-d09-49-n400
 OpenBabel08281820523D

 14 14  0  0  0  0  0  0  0  0999 V2000
   -1.3038   -1.4389   -1.1343 C   0  0  0  0  0  0  0  0  0  0  0  0
    0.0203   -1.0749   -0.9193 C   0  0  0  0  0  0  0  0  0  0  0  0
    0.3263    0.2523   -0.5695 C   0  0  0  0  0  0  0  0  0  0  0  0
   -0.7031    1.1949   -0.4392 C   0  0  0  0  0  0  0  0  0  0  0  0
   -2.0284    0.8217   -0.6571 C   0  0  0  0  0  0  0  0  0  0  0  0
   -2.3311   -0.4953   -1.0054 C   0  0  0  0  0  0  0  0  0  0  0  0
   -1.5423   -2.4633   -1.4060 H   0  0  0  0  0  0  0  0  0  0  0  0
    0.8248   -1.7945   -1.0166 H   0  0  0  0  0  0  0  0  0  0  0  0
   -0.4370    2.2110   -0.1664 H   0  0  0  0  0  0  0  0  0  0  0  0
   -2.8215    1.5563   -0.5550 H   0  0  0  0  0  0  0  0  0  0  0  0
    1.6269    0.7545   -0.3252 N   0  0  0  0  0  0  0  0  0  0  0  0
    2.5503   -0.1062   -0.4569 N   0  0  0  0  0  0  0  0  0  0  0  0
    3.8896    0.3124   -0.2302 Cl  0  0  0  0  0  0  0  0  0  0  0  0
   -3.3622   -0.7901   -1.1776 H   0  0  0  0  0  0  0  0  0  0  0  0
  1  6  2  0  0  0  0
  1  2  1  0  0  0  0
  2  3  2  0  0  0  0
  3  4  1  0  0  0  0
  3 11  1  0  0  0  0
  4  9  1  0  0  0  0
  5 10  1  0  0  0  0
  5  4  2  0  0  0  0
  6  5  1  0  0  0  0
  7  1  1  0  0  0  0
  8  2  1  0  0  0  0
 12 11  1  0  0  0  0
 12 13  1  0  0  0  0
 14  6  1  0  0  0  0
M  RAD  2  11   2  12   2
M  END
