Coordinates from ORCA-job Ph-N2-Cl-B3LYPG-6-31G_dp-scan-d09-49-n400
 OpenBabel08281820523D

 14 13  0  0  0  0  0  0  0  0999 V2000
   -1.6359   -1.4099   -1.1667 C   0  0  0  0  0  0  0  0  0  0  0  0
   -0.2686   -1.5908   -1.1158 C   0  0  0  0  0  0  0  0  0  0  0  0
    0.5169   -0.4653   -0.7539 C   0  0  0  0  0  0  0  0  0  0  0  0
   -0.0063    0.8064   -0.4484 C   0  0  0  0  0  0  0  0  0  0  0  0
   -1.3935    0.9318   -0.5178 C   0  0  0  0  0  0  0  0  0  0  0  0
   -2.1983   -0.1512   -0.8683 C   0  0  0  0  0  0  0  0  0  0  0  0
   -2.2756   -2.2426   -1.4388 H   0  0  0  0  0  0  0  0  0  0  0  0
    0.1959   -2.5443   -1.3417 H   0  0  0  0  0  0  0  0  0  0  0  0
    0.6292    1.6811   -0.1706 H   0  0  0  0  0  0  0  0  0  0  0  0
   -1.8233    1.9018   -0.2889 H   0  0  0  0  0  0  0  0  0  0  0  0
    1.8737   -0.6339   -0.6992 N   0  0  0  0  0  0  0  0  0  0  0  0
    2.9828   -0.8045   -0.6655 N   0  0  0  0  0  0  0  0  0  0  0  0
    1.3882    3.4913    0.3318 Cl  0  0  0  0  0  0  0  0  0  0  0  0
   -3.2766   -0.0298   -0.9150 H   0  0  0  0  0  0  0  0  0  0  0  0
  1  2  2  0  0  0  0
  1  6  1  0  0  0  0
  2  3  1  0  0  0  0
  3 11  1  0  0  0  0
  3  4  2  0  0  0  0
  4  9  1  0  0  0  0
  5  4  1  0  0  0  0
  5 10  1  0  0  0  0
  6  5  2  0  0  0  0
  7  1  1  0  0  0  0
  8  2  1  0  0  0  0
 11 12  1  0  0  0  0
 14  6  1  0  0  0  0
M  RAD  3  11   2  12   3  13   2
M  END
