Coordinates from ORCA-job Ph-N2-Cl-B3LYPG-6-31G_dp-scan-d09-49-n400
 OpenBabel08281820513D

 14 14  0  0  0  0  0  0  0  0999 V2000
   -1.2378   -1.4195   -1.1239 C   0  0  0  0  0  0  0  0  0  0  0  0
    0.0747   -1.0127   -0.9014 C   0  0  0  0  0  0  0  0  0  0  0  0
    0.3559    0.3238   -0.5518 C   0  0  0  0  0  0  0  0  0  0  0  0
   -0.7165    1.2289   -0.4338 C   0  0  0  0  0  0  0  0  0  0  0  0
   -2.0251    0.8129   -0.6582 C   0  0  0  0  0  0  0  0  0  0  0  0
   -2.2959   -0.5135   -1.0050 C   0  0  0  0  0  0  0  0  0  0  0  0
   -1.4373   -2.4530   -1.3943 H   0  0  0  0  0  0  0  0  0  0  0  0
    0.8868   -1.7276   -0.9987 H   0  0  0  0  0  0  0  0  0  0  0  0
   -0.4902    2.2552   -0.1627 H   0  0  0  0  0  0  0  0  0  0  0  0
   -2.8383    1.5268   -0.5617 H   0  0  0  0  0  0  0  0  0  0  0  0
    1.6218    0.8628   -0.3021 N   0  0  0  0  0  0  0  0  0  0  0  0
    2.6112   -0.0192   -0.4258 N   0  0  0  0  0  0  0  0  0  0  0  0
    3.5162   -0.0862   -0.3574 Cl  0  0  0  0  0  0  0  0  0  0  0  0
   -3.3168   -0.8384   -1.1820 H   0  0  0  0  0  0  0  0  0  0  0  0
  1  6  2  0  0  0  0
  1  2  1  0  0  0  0
  2  3  2  0  0  0  0
  3  4  1  0  0  0  0
  3 11  1  0  0  0  0
  4  9  1  0  0  0  0
  5 10  1  0  0  0  0
  5  4  2  0  0  0  0
  6  5  1  0  0  0  0
  7  1  1  0  0  0  0
  8  2  1  0  0  0  0
 12 13  1  0  0  0  0
 12 11  1  0  0  0  0
 14  6  1  0  0  0  0
M  RAD  2  11   2  12   2
M  END
