Coordinates from ORCA-job Ph-N2-Cl-B3LYPG-6-31G_dp-scan-d09-49-n400
 OpenBabel08281820523D

 14 13  0  0  0  0  0  0  0  0999 V2000
   -1.6504   -1.4564   -1.1758 C   0  0  0  0  0  0  0  0  0  0  0  0
   -0.2654   -1.5342   -1.0968 C   0  0  0  0  0  0  0  0  0  0  0  0
    0.4346   -0.3751   -0.7382 C   0  0  0  0  0  0  0  0  0  0  0  0
   -0.1799    0.8524   -0.4554 C   0  0  0  0  0  0  0  0  0  0  0  0
   -1.5694    0.8952   -0.5439 C   0  0  0  0  0  0  0  0  0  0  0  0
   -2.2971   -0.2447   -0.9001 C   0  0  0  0  0  0  0  0  0  0  0  0
   -2.2255   -2.3339   -1.4513 H   0  0  0  0  0  0  0  0  0  0  0  0
    0.2705   -2.4539   -1.3039 H   0  0  0  0  0  0  0  0  0  0  0  0
    0.4405    1.7099   -0.1830 H   0  0  0  0  0  0  0  0  0  0  0  0
   -2.0841    1.8270   -0.3324 H   0  0  0  0  0  0  0  0  0  0  0  0
    1.8347   -0.4504   -0.6593 N   0  0  0  0  0  0  0  0  0  0  0  0
    2.8492    0.0315   -0.4620 N   0  0  0  0  0  0  0  0  0  0  0  0
    2.5309    2.6635    0.2083 Cl  0  0  0  0  0  0  0  0  0  0  0  0
   -3.3800   -0.1909   -0.9650 H   0  0  0  0  0  0  0  0  0  0  0  0
  1  2  2  0  0  0  0
  1  6  1  0  0  0  0
  2  3  1  0  0  0  0
  3 11  1  0  0  0  0
  3  4  2  0  0  0  0
  4  9  1  0  0  0  0
  5  4  1  0  0  0  0
  5 10  1  0  0  0  0
  6  5  2  0  0  0  0
  7  1  1  0  0  0  0
  8  2  1  0  0  0  0
 11 12  2  0  0  0  0
 14  6  1  0  0  0  0
M  RAD  2  12   2  13   2
M  END
