Coordinates from ORCA-job Ph-N2-Cl-B3LYPG-6-31G_dp-scan-d09-49-n400
 OpenBabel08281820523D

 14 13  0  0  0  0  0  0  0  0999 V2000
   -1.4268   -1.4675   -1.1523 C   0  0  0  0  0  0  0  0  0  0  0  0
   -0.0813   -1.1778   -0.9552 C   0  0  0  0  0  0  0  0  0  0  0  0
    0.2758    0.1321   -0.6057 C   0  0  0  0  0  0  0  0  0  0  0  0
   -0.6771    1.1408   -0.4517 C   0  0  0  0  0  0  0  0  0  0  0  0
   -2.0217    0.8333   -0.6533 C   0  0  0  0  0  0  0  0  0  0  0  0
   -2.3941   -0.4663   -1.0026 C   0  0  0  0  0  0  0  0  0  0  0  0
   -1.7247   -2.4751   -1.4244 H   0  0  0  0  0  0  0  0  0  0  0  0
    0.6845   -1.9378   -1.0665 H   0  0  0  0  0  0  0  0  0  0  0  0
   -0.3521    2.1387   -0.1789 H   0  0  0  0  0  0  0  0  0  0  0  0
   -2.7747    1.6060   -0.5375 H   0  0  0  0  0  0  0  0  0  0  0  0
    1.6364    0.5121   -0.3867 N   0  0  0  0  0  0  0  0  0  0  0  0
    2.5790   -0.1804   -0.4717 N   0  0  0  0  0  0  0  0  0  0  0  0
    4.4273    0.9857   -0.0115 Cl  0  0  0  0  0  0  0  0  0  0  0  0
   -3.4418   -0.7037   -1.1606 H   0  0  0  0  0  0  0  0  0  0  0  0
  1  6  2  0  0  0  0
  1  2  1  0  0  0  0
  2  3  2  0  0  0  0
  3  4  1  0  0  0  0
  3 11  1  0  0  0  0
  4  9  1  0  0  0  0
  5 10  1  0  0  0  0
  5  4  2  0  0  0  0
  6  5  1  0  0  0  0
  7  1  1  0  0  0  0
  8  2  1  0  0  0  0
 12 11  2  0  0  0  0
 14  6  1  0  0  0  0
M  RAD  2  12   2  13   2
M  END
