Coordinates from ORCA-job Ph-N2-Cl-B3LYPG-6-31G_dp-scan-d09-49-n400
 OpenBabel08281820523D

 14 13  0  0  0  0  0  0  0  0999 V2000
   -1.5923   -1.4179   -1.1612 C   0  0  0  0  0  0  0  0  0  0  0  0
   -0.2128   -1.4974   -1.0832 C   0  0  0  0  0  0  0  0  0  0  0  0
    0.4859   -0.3231   -0.7220 C   0  0  0  0  0  0  0  0  0  0  0  0
   -0.1283    0.8982   -0.4421 C   0  0  0  0  0  0  0  0  0  0  0  0
   -1.5203    0.9350   -0.5322 C   0  0  0  0  0  0  0  0  0  0  0  0
   -2.2443   -0.2035   -0.8864 C   0  0  0  0  0  0  0  0  0  0  0  0
   -2.1639   -2.2982   -1.4360 H   0  0  0  0  0  0  0  0  0  0  0  0
    0.3224   -2.4183   -1.2897 H   0  0  0  0  0  0  0  0  0  0  0  0
    0.4929    1.7790   -0.1637 H   0  0  0  0  0  0  0  0  0  0  0  0
   -2.0303    1.8690   -0.3206 H   0  0  0  0  0  0  0  0  0  0  0  0
    1.8827   -0.4552   -0.6585 N   0  0  0  0  0  0  0  0  0  0  0  0
    2.8712   -0.9938   -0.7325 N   0  0  0  0  0  0  0  0  0  0  0  0
    1.8734    3.2221    0.3222 Cl  0  0  0  0  0  0  0  0  0  0  0  0
   -3.3274   -0.1559   -0.9530 H   0  0  0  0  0  0  0  0  0  0  0  0
  1  2  2  0  0  0  0
  1  6  1  0  0  0  0
  2  3  1  0  0  0  0
  3 11  1  0  0  0  0
  3  4  2  0  0  0  0
  4  9  1  0  0  0  0
  5  4  1  0  0  0  0
  5 10  1  0  0  0  0
  6  5  2  0  0  0  0
  7  1  1  0  0  0  0
  8  2  1  0  0  0  0
 12 11  1  0  0  0  0
 14  6  1  0  0  0  0
M  RAD  3  11   2  12   3  13   2
M  END
