Coordinates from ORCA-job Ph-N2-Cl-B3LYPG-6-31G_dp-scan-d09-49-n400
 OpenBabel08281820523D

 14 14  0  0  0  0  0  0  0  0999 V2000
   -1.3050   -1.4392   -1.1345 C   0  0  0  0  0  0  0  0  0  0  0  0
    0.0194   -1.0759   -0.9196 C   0  0  0  0  0  0  0  0  0  0  0  0
    0.3258    0.2511   -0.5698 C   0  0  0  0  0  0  0  0  0  0  0  0
   -0.7029    1.1944   -0.4393 C   0  0  0  0  0  0  0  0  0  0  0  0
   -2.0284    0.8219   -0.6571 C   0  0  0  0  0  0  0  0  0  0  0  0
   -2.3316   -0.4950   -1.0054 C   0  0  0  0  0  0  0  0  0  0  0  0
   -1.5440   -2.4634   -1.4062 H   0  0  0  0  0  0  0  0  0  0  0  0
    0.8235   -1.7959   -1.0171 H   0  0  0  0  0  0  0  0  0  0  0  0
   -0.4361    2.2103   -0.1665 H   0  0  0  0  0  0  0  0  0  0  0  0
   -2.8212    1.5568   -0.5548 H   0  0  0  0  0  0  0  0  0  0  0  0
    1.6270    0.7529   -0.3256 N   0  0  0  0  0  0  0  0  0  0  0  0
    2.5491   -0.1078   -0.4574 N   0  0  0  0  0  0  0  0  0  0  0  0
    3.8959    0.3192   -0.2280 Cl  0  0  0  0  0  0  0  0  0  0  0  0
   -3.3629   -0.7894   -1.1775 H   0  0  0  0  0  0  0  0  0  0  0  0
  1  6  2  0  0  0  0
  1  2  1  0  0  0  0
  2  3  2  0  0  0  0
  3  4  1  0  0  0  0
  3 11  1  0  0  0  0
  4  9  1  0  0  0  0
  5 10  1  0  0  0  0
  5  4  2  0  0  0  0
  6  5  1  0  0  0  0
  7  1  1  0  0  0  0
  8  2  1  0  0  0  0
 12 11  1  0  0  0  0
 12 13  1  0  0  0  0
 14  6  1  0  0  0  0
M  RAD  2  11   2  12   2
M  END
