Coordinates from ORCA-job Ph-N2-Cl-B3LYPG-6-31G_dp-scan-d09-49-n400
 OpenBabel08281820523D

 14 13  0  0  0  0  0  0  0  0999 V2000
   -1.4224   -1.4667   -1.1515 C   0  0  0  0  0  0  0  0  0  0  0  0
   -0.0777   -1.1737   -0.9538 C   0  0  0  0  0  0  0  0  0  0  0  0
    0.2768    0.1369   -0.6044 C   0  0  0  0  0  0  0  0  0  0  0  0
   -0.6790    1.1431   -0.4513 C   0  0  0  0  0  0  0  0  0  0  0  0
   -2.0229    0.8328   -0.6536 C   0  0  0  0  0  0  0  0  0  0  0  0
   -2.3922   -0.4677   -1.0028 C   0  0  0  0  0  0  0  0  0  0  0  0
   -1.7178   -2.4751   -1.4235 H   0  0  0  0  0  0  0  0  0  0  0  0
    0.6897   -1.9322   -1.0644 H   0  0  0  0  0  0  0  0  0  0  0  0
   -0.3564    2.1418   -0.1784 H   0  0  0  0  0  0  0  0  0  0  0  0
   -2.7776    1.6039   -0.5385 H   0  0  0  0  0  0  0  0  0  0  0  0
    1.6361    0.5228   -0.3838 N   0  0  0  0  0  0  0  0  0  0  0  0
    2.5742   -0.1782   -0.4734 N   0  0  0  0  0  0  0  0  0  0  0  0
    4.4171    0.9598   -0.0180 Cl  0  0  0  0  0  0  0  0  0  0  0  0
   -3.4393   -0.7076   -1.1613 H   0  0  0  0  0  0  0  0  0  0  0  0
  1  6  2  0  0  0  0
  1  2  1  0  0  0  0
  2  3  2  0  0  0  0
  3  4  1  0  0  0  0
  3 11  1  0  0  0  0
  4  9  1  0  0  0  0
  5 10  1  0  0  0  0
  5  4  2  0  0  0  0
  6  5  1  0  0  0  0
  7  1  1  0  0  0  0
  8  2  1  0  0  0  0
 12 11  2  0  0  0  0
 14  6  1  0  0  0  0
M  RAD  2  12   2  13   2
M  END
