Coordinates from ORCA-job Ph-N2-Cl-B3LYPG-6-31G_dp-scan-d09-49-n400
 OpenBabel08281820523D

 14 13  0  0  0  0  0  0  0  0999 V2000
   -1.5359   -1.4098   -1.1561 C   0  0  0  0  0  0  0  0  0  0  0  0
   -0.1523   -1.3810   -1.0492 C   0  0  0  0  0  0  0  0  0  0  0  0
    0.4518   -0.1658   -0.6826 C   0  0  0  0  0  0  0  0  0  0  0  0
   -0.2631    0.9951   -0.4249 C   0  0  0  0  0  0  0  0  0  0  0  0
   -1.6527    0.9366   -0.5403 C   0  0  0  0  0  0  0  0  0  0  0  0
   -2.2855   -0.2533   -0.9024 C   0  0  0  0  0  0  0  0  0  0  0  0
   -2.0300   -2.3340   -1.4381 H   0  0  0  0  0  0  0  0  0  0  0  0
    0.4529   -2.2604   -1.2405 H   0  0  0  0  0  0  0  0  0  0  0  0
    0.2909    1.8929   -0.1462 H   0  0  0  0  0  0  0  0  0  0  0  0
   -2.2372    1.8294   -0.3443 H   0  0  0  0  0  0  0  0  0  0  0  0
    1.8921   -0.1945   -0.5867 N   0  0  0  0  0  0  0  0  0  0  0  0
    2.7416   -0.9387   -0.7224 N   0  0  0  0  0  0  0  0  0  0  0  0
    2.4037    2.5097    0.1648 Cl  0  0  0  0  0  0  0  0  0  0  0  0
   -3.3675   -0.2861   -0.9899 H   0  0  0  0  0  0  0  0  0  0  0  0
  1  2  2  0  0  0  0
  1  6  1  0  0  0  0
  2  3  1  0  0  0  0
  3 11  1  0  0  0  0
  3  4  2  0  0  0  0
  4  9  1  0  0  0  0
  5  4  1  0  0  0  0
  5 10  1  0  0  0  0
  6  5  2  0  0  0  0
  7  1  1  0  0  0  0
  8  2  1  0  0  0  0
 12 11  2  0  0  0  0
 14  6  1  0  0  0  0
M  RAD  2  12   2  13   2
M  END
