Coordinates from ORCA-job Ph-N2-Cl-B3LYPG-6-31G_dp-scan-d09-49-n400
 OpenBabel08281820523D

 14 14  0  0  0  0  0  0  0  0999 V2000
   -1.2948   -1.4363   -1.1329 C   0  0  0  0  0  0  0  0  0  0  0  0
    0.0277   -1.0667   -0.9168 C   0  0  0  0  0  0  0  0  0  0  0  0
    0.3301    0.2617   -0.5671 C   0  0  0  0  0  0  0  0  0  0  0  0
   -0.7051    1.1993   -0.4385 C   0  0  0  0  0  0  0  0  0  0  0  0
   -2.0285    0.8206   -0.6573 C   0  0  0  0  0  0  0  0  0  0  0  0
   -2.3265   -0.4976   -1.0054 C   0  0  0  0  0  0  0  0  0  0  0  0
   -1.5284   -2.4620   -1.4044 H   0  0  0  0  0  0  0  0  0  0  0  0
    0.8348   -1.7834   -1.0134 H   0  0  0  0  0  0  0  0  0  0  0  0
   -0.4442    2.2169   -0.1658 H   0  0  0  0  0  0  0  0  0  0  0  0
   -2.8244    1.5524   -0.5560 H   0  0  0  0  0  0  0  0  0  0  0  0
    1.6259    0.7682   -0.3220 N   0  0  0  0  0  0  0  0  0  0  0  0
    2.5599   -0.0930   -0.4525 N   0  0  0  0  0  0  0  0  0  0  0  0
    3.8385    0.2565   -0.2482 Cl  0  0  0  0  0  0  0  0  0  0  0  0
   -3.3563   -0.7967   -1.1784 H   0  0  0  0  0  0  0  0  0  0  0  0
  1  6  2  0  0  0  0
  1  2  1  0  0  0  0
  2  3  2  0  0  0  0
  3  4  1  0  0  0  0
  3 11  1  0  0  0  0
  4  9  1  0  0  0  0
  5 10  1  0  0  0  0
  5  4  2  0  0  0  0
  6  5  1  0  0  0  0
  7  1  1  0  0  0  0
  8  2  1  0  0  0  0
 12 11  1  0  0  0  0
 12 13  1  0  0  0  0
 14  6  1  0  0  0  0
M  RAD  2  11   2  12   2
M  END
