Coordinates from ORCA-job Ph-N2-Cl-B3LYPG-6-31G_dp-scan-d09-49-n400
 OpenBabel08281820523D

 14 14  0  0  0  0  0  0  0  0999 V2000
   -1.3128   -1.4413   -1.1358 C   0  0  0  0  0  0  0  0  0  0  0  0
    0.0131   -1.0828   -0.9219 C   0  0  0  0  0  0  0  0  0  0  0  0
    0.3226    0.2432   -0.5722 C   0  0  0  0  0  0  0  0  0  0  0  0
   -0.7013    1.1907   -0.4402 C   0  0  0  0  0  0  0  0  0  0  0  0
   -2.0283    0.8226   -0.6568 C   0  0  0  0  0  0  0  0  0  0  0  0
   -2.3357   -0.4932   -1.0052 C   0  0  0  0  0  0  0  0  0  0  0  0
   -1.5559   -2.4644   -1.4075 H   0  0  0  0  0  0  0  0  0  0  0  0
    0.8144   -1.8057   -1.0205 H   0  0  0  0  0  0  0  0  0  0  0  0
   -0.4302    2.2055   -0.1673 H   0  0  0  0  0  0  0  0  0  0  0  0
   -2.8186    1.5600   -0.5536 H   0  0  0  0  0  0  0  0  0  0  0  0
    1.6280    0.7414   -0.3289 N   0  0  0  0  0  0  0  0  0  0  0  0
    2.5411   -0.1184   -0.4602 N   0  0  0  0  0  0  0  0  0  0  0  0
    3.9404    0.3664   -0.2122 Cl  0  0  0  0  0  0  0  0  0  0  0  0
   -3.3681   -0.7840   -1.1765 H   0  0  0  0  0  0  0  0  0  0  0  0
  1  6  2  0  0  0  0
  1  2  1  0  0  0  0
  2  3  2  0  0  0  0
  3  4  1  0  0  0  0
  3 11  1  0  0  0  0
  4  9  1  0  0  0  0
  5 10  1  0  0  0  0
  5  4  2  0  0  0  0
  6  5  1  0  0  0  0
  7  1  1  0  0  0  0
  8  2  1  0  0  0  0
 12 11  1  0  0  0  0
 12 13  1  0  0  0  0
 14  6  1  0  0  0  0
M  RAD  2  11   2  12   2
M  END
