Coordinates from ORCA-job Ph-N2-Cl-B3LYPG-6-31G_dp-scan-d09-49-n400
 OpenBabel08281820523D

 14 13  0  0  0  0  0  0  0  0999 V2000
   -1.5503   -1.4144   -1.1580 C   0  0  0  0  0  0  0  0  0  0  0  0
   -0.1667   -1.4090   -1.0573 C   0  0  0  0  0  0  0  0  0  0  0  0
    0.4555   -0.2011   -0.6917 C   0  0  0  0  0  0  0  0  0  0  0  0
   -0.2365    0.9726   -0.4294 C   0  0  0  0  0  0  0  0  0  0  0  0
   -1.6273    0.9353   -0.5392 C   0  0  0  0  0  0  0  0  0  0  0  0
   -2.2795   -0.2446   -0.8997 C   0  0  0  0  0  0  0  0  0  0  0  0
   -2.0613   -2.3297   -1.4385 H   0  0  0  0  0  0  0  0  0  0  0  0
    0.4248   -2.2972   -1.2516 H   0  0  0  0  0  0  0  0  0  0  0  0
    0.3396    1.8625   -0.1516 H   0  0  0  0  0  0  0  0  0  0  0  0
   -2.1970    1.8369   -0.3401 H   0  0  0  0  0  0  0  0  0  0  0  0
    1.8885   -0.2492   -0.6020 N   0  0  0  0  0  0  0  0  0  0  0  0
    2.7676   -0.9567   -0.7270 N   0  0  0  0  0  0  0  0  0  0  0  0
    2.3137    2.6951    0.2100 Cl  0  0  0  0  0  0  0  0  0  0  0  0
   -3.3622   -0.2605   -0.9827 H   0  0  0  0  0  0  0  0  0  0  0  0
  1  2  2  0  0  0  0
  1  6  1  0  0  0  0
  2  3  1  0  0  0  0
  3 11  1  0  0  0  0
  3  4  2  0  0  0  0
  4  9  1  0  0  0  0
  5  4  1  0  0  0  0
  5 10  1  0  0  0  0
  6  5  2  0  0  0  0
  7  1  1  0  0  0  0
  8  2  1  0  0  0  0
 12 11  2  0  0  0  0
 14  6  1  0  0  0  0
M  RAD  2  12   2  13   2
M  END
