31
Coordinates from ORCA-job Ph-N2-X-OTs-B3LYPG-6-31G_dp-scan-d09-49-n400
  C   -0.18322104311294      0.30692694641124     -1.36159788129236
  C   0.70430849935553      0.96293771753597     -2.21097448223280
  C   0.27364459310433      2.17398780431731     -2.77508534307372
  C   -0.99047131875689      2.72645487137203     -2.52620141146219
  C   -1.84733774601217      2.05456137388181     -1.66291654273946
  C   -1.44269994834407      0.84677670612338     -1.08410066824707
  H   0.11726490896724     -0.63586846331940     -0.91736603697347
  H   1.68075061225692      0.55149046455320     -2.44339447280805
  H   -1.27354543368415      3.66034276898717     -2.99854833521680
  H   -2.82754083846520      2.46526432828459     -1.44661205066028
  N   1.10498018390419      2.88393698178018     -3.65345634849476
  N   2.12647152779670      3.07658269456735     -4.13028021830612
  C   6.25387748736253      1.37383631900123     -5.29179093167490
  C   7.64598486003369      1.41710924081500     -5.35291381181234
  C   8.43460379158567      0.81361970950275     -4.36338374538172
  C   7.78915506568173      0.16012904435148     -3.30366776273147
  C   6.39865039471781      0.10724841650408     -3.22914923869510
  C   5.63692443195782      0.71934942169947     -4.22545407311155
  H   5.64399906475141      1.82772513364126     -6.06523105128215
  H   8.12838609502814      1.92360546373014     -6.18550857643904
  H   8.38386462351835     -0.31626734948305     -2.52809273417801
  H   5.90061677461388     -0.41097106889137     -2.41691108033283
  S   3.84702398053952      0.69192300367956     -4.11892107774098
  O   3.47371189747955     -0.54092975759425     -3.39105503394484
  O   3.30890229098081      0.86673747940314     -5.48162092060126
  O   3.50503090426299      1.92047019366551     -3.23443792054340
  C   9.94218983674010      0.83617816107444     -4.45375561062448
  H   10.31962360967045     -0.04920377220476     -4.98154138519535
  H   10.29818690294669      1.71514710342144     -4.99942336056811
  H   10.40393936953514      0.84218627939677     -3.46197324205378
  H   -2.11787537841605      0.31961278379227     -0.41663465158156
