31
Coordinates from ORCA-job Ph-N2-X-OTs-B3LYPG-6-31G_dp-scan-d09-49-n400
  C   -0.35988048884994      0.35897193369571     -1.41537076924731
  C   0.73107557609354      1.07415863378500     -1.89997907736255
  C   0.46436895730442      2.26295015477141     -2.59846910209144
  C   -0.83420246306716      2.74436190171090     -2.81392667965713
  C   -1.90353869594935      2.00904503666151     -2.31696435442341
  C   -1.66448516312388      0.81916912796538     -1.62077581542772
  H   -0.18517216857100     -0.56824118686767     -0.88031572363482
  H   1.75226343461976      0.74036233964885     -1.76027588223593
  H   -0.98218647435490      3.66860108667602     -3.36094065563022
  H   -2.91842692450436      2.35869042169805     -2.47336735178094
  N   1.51298292445232      3.02793466372815     -3.12423604854408
  N   2.62859223544564      3.18408216994874     -3.32469453299774
  C   6.04735967980531      1.34893912302169     -5.06300161847000
  C   7.40447650669950      1.44261952050039     -5.36691495233099
  C   8.37308493517998      0.83716548460839     -4.55380714600138
  C   7.94489384498368      0.13022358738573     -3.42129825750246
  C   6.59149363566643      0.02647885479332     -3.10503102335785
  C   5.64796942540622      0.64197498556394     -3.92845284941789
  H   5.29692440936652      1.80354327997558     -5.70018227769082
  H   7.71722647279608      1.99019801139135     -6.25283662975390
  H   8.68136108961511     -0.34823549653330     -2.78075353989843
  H   6.26110853353658     -0.53386291635782     -2.23691638422791
  S   3.90735386060949      0.54481157477647     -3.50634115827014
  O   3.69392729200999     -0.74347860147084     -2.82199318213933
  O   3.13420645629543      0.81218856465100     -4.73669105891096
  O   3.68401719172268      1.69367510782430     -2.48199961222440
  C   9.83905972356079      0.91718938201902     -4.90864718561471
  H   10.11399159546097      0.13775215599000     -5.63067463099658
  H   10.08955789310435      1.88098762452325     -5.36291113454641
  H   10.47237579104248      0.78341897268458     -4.02687730599817
  H   -2.50237908635699      0.24522450123084     -1.23735405961435
