31
Coordinates from ORCA-job Ph-N2-X-OTs-B3LYPG-6-31G_dp-scan-d09-49-n400
  C   -0.58995183881925      0.57597777873023     -1.27487920436488
  C   0.61885534086278      1.00772237417378     -1.81256938174292
  C   0.59800777841125      2.15730296962414     -2.61955091632503
  C   -0.57820801788434      2.87141024804086     -2.88547628922232
  C   -1.77201241260894      2.41625497344728     -2.33758700929154
  C   -1.77564701016974      1.27089989847768     -1.53504373367987
  H   -0.60470264544382     -0.31279584584751     -0.65261302360609
  H   1.55779383794386      0.49660162500720     -1.63990678187113
  H   -0.53898670078162      3.75485898488464     -3.51304485105430
  H   -2.69543725002814      2.94988486372590     -2.53543613031275
  N   1.77184856119108      2.65152388937412     -3.20728079307488
  N   2.89530572520022      2.48901024724730     -3.40464317807100
  C   5.93945218640147      1.11671903621176     -5.09063506736593
  C   7.25888849459433      1.48754330634225     -5.35003115560918
  C   8.30762808131712      1.05890734759104     -4.52599098446284
  C   8.00069521478530      0.24300007774865     -3.42620448506874
  C   6.68862946252044     -0.13679666779105     -3.15493077503239
  C   5.66088480508689      0.30804474997698     -3.98936979575248
  H   5.12956054708087      1.43515346378652     -5.73729486140969
  H   7.47841688565865      2.11499833117480     -6.21048959891034
  H   8.80151095746818     -0.10302754774643     -2.77748744789435
  H   6.45635440578481     -0.78174772483370     -2.31410079317595
  S   3.96612253877858     -0.15534145830325     -3.62930759840535
  O   3.99394405771084     -1.49321346472828     -3.02346975327622
  O   3.18075334566874      0.06293075889615     -4.85645981273764
  O   3.51148657318201      0.86515614329809     -2.52567217450267
  C   9.73806875446656      1.43569995852572     -4.83107698628720
  H   10.24287671674394      0.64277410434884     -5.39775990295327
  H   9.79216611508708      2.34964248458895     -5.42991106051481
  H   10.31461411355124      1.59448981419565     -3.91461111389231
  H   -2.70951862376066      0.91731527983162     -1.10916534013190
