31
Coordinates from ORCA-job Ph-N2-X-OTs-B3LYPG-6-31G_dp-scan-d09-49-n400
  C   -0.26449885637922      0.32928043288647     -1.36836824630541
  C   0.71133793175610      1.01017152152627     -2.09139174900842
  C   0.33114657875831      2.21238177350316     -2.70933746802230
  C   -0.96693914116005      2.73502632104212     -2.62555262829783
  C   -1.91550473978404      2.03781967577615     -1.88723466183012
  C   -1.56311474194962      0.83668751477365     -1.26233997200811
  H   -0.00282526406568     -0.60762112692268     -0.88848206165542
  H   1.72183855845765      0.62967402257220     -2.18823138879900
  H   -1.20688322546183      3.66482226184262     -3.12888391359601
  H   -2.92538990406251      2.42474807763997     -1.80250367631995
  N   1.25180089863833      2.94589168855190     -3.47055591853508
  N   2.31516949960144      3.12415962338931     -3.85339555694578
  C   6.19311214340206      1.37054382767027     -5.21452234103840
  C   7.57804556381354      1.43203146726557     -5.36293599135704
  C   8.43461409480139      0.81915765358414     -4.43792158913712
  C   7.86490986134722      0.13705636327709     -3.35304461320561
  C   6.48269049715256      0.06573550335064     -3.19164080158281
  C   5.65226415178673      0.68810810085346     -4.12479395869218
  H   5.53078386590855      1.83229513933869     -5.93857028697218
  H   8.00081150337403      1.96061783069388     -6.21402714678338
  H   8.51275246837774     -0.34725020084923     -2.62653970942850
  H   6.04336503245052     -0.47423880227438     -2.35978101529273
  S   3.87346963234032      0.63747796443048     -3.90246088071911
  O   3.55808944710689     -0.61635524077571     -3.18780354941400
  O   3.24775903074180      0.85038914338297     -5.22271406024010
  O   3.56928325434312      1.83600674973945     -2.96227632369648
  C   9.93323839241211      0.86243723622587     -4.62201036797659
  H   10.28653679971024     -0.00631494140887     -5.19250433740323
  H   10.24461196222567      1.75759755461130     -5.16876972320110
  H   10.45542978815589      0.85239092137035     -3.66083936728544
  H   -2.30850508379955      0.29017194293282     -0.69256669525050
