31
Coordinates from ORCA-job Ph-N2-X-OTs-B3LYPG-6-31G_dp-scan-d09-49-n400
  C   -0.19343752485556      0.30946274010677     -1.36456995765992
  C   0.70874413629524      0.96949531044641     -2.19526019486785
  C   0.28521778225591      2.17979851315793     -2.76663550536638
  C   -0.98582465910529      2.72674774279258     -2.54149776377322
  C   -1.85784477334827      2.05072457014392     -1.69680543337508
  C   -1.46043896892222      0.84373537359129     -1.11158300902078
  H   0.10171535121257     -0.63280410649569     -0.91562264172360
  H   1.69105131249681      0.56054378138258     -2.40631025421346
  H   -1.26276872139868      3.66032031496851     -3.01812988346809
  H   -2.84367417268169      2.45777209613631     -1.49982976321126
  N   1.12876324179720      2.89732927221737     -3.62760446876187
  N   2.15935540372752      3.08704094138510     -4.08711914214375
  C   6.24323528320968      1.37223012421560     -5.28101752253919
  C   7.63464302891111      1.41761629901083     -5.35563776110583
  C   8.43382169090445      0.81416863114042     -4.37461931751179
  C   7.79972221644093      0.15840464203368     -3.30944016296976
  C   6.41012321669594      0.10341878809434     -3.22138411406456
  C   5.63776221136340      0.71557882057054     -4.20948946850313
  H   5.62532340417917      1.82619141885062     -6.04798497212128
  H   8.10807694931729      1.92584058689494     -6.19231422677577
  H   8.40259991839472     -0.31811117123748     -2.54029263644918
  H   5.92094984026349     -0.41646267409169     -2.40480289350515
  S   3.84923937448012      0.68525400098237     -4.08480659477090
  O   3.48418004615127     -0.54975874437395     -3.35728685358516
  O   3.29775281606480      0.86576953047414     -5.44143882135372
  O   3.51186670187750      1.90936188871700     -3.19112790957466
  C   9.94043421776249      0.83920210004077     -4.47947068182343
  H   10.31426916721298     -0.04602817238822     -5.01008158350090
  H   10.28969505417366      1.71830384169970     -5.02925789756896
  H   10.41153559182512      0.84680497762438     -3.49212875021934
  H   -2.14668913670192      0.31294856190885     -0.45844981447199
