31
Coordinates from ORCA-job Ph-N2-X-OTs-B3LYPG-6-31G_dp-scan-d09-49-n400
  C   -0.58567751252729      0.62458886399024     -1.21898889386073
  C   0.61054917609705      1.00228251700594     -1.82195869085333
  C   0.59089603696468      2.13205439818781     -2.65673246560535
  C   -0.57337596324133      2.87785946755495     -2.88663972451633
  C   -1.75492996995448      2.47725463692972     -2.27331167921777
  C   -1.75900572300505      1.35254381635966     -1.44221779718414
  H   -0.60043041456681     -0.24775358346885     -0.57374008226188
  H   1.53853185564861      0.46305108372205     -1.67881435071095
  H   -0.53459003418095      3.74374766254137     -3.53836464004378
  H   -2.66857770914443      3.03705621741862     -2.44271357363602
  N   1.74931502467424      2.57514751550554     -3.31337634829531
  N   2.85903600018170      2.36427355905620     -3.55005787006091
  C   5.94966862655150      1.08664543433460     -5.12117673893947
  C   7.26439599743057      1.49679840504329     -5.34174411382630
  C   8.30287448841852      1.08881514660940     -4.49435796804550
  C   7.99033967880945      0.25326546016942     -3.41109410216011
  C   6.68265182411967     -0.16532069142263     -3.17795660538128
  C   5.66524635805824      0.25949664932198     -4.03504979403057
  H   5.14870365134957      1.38881436712901     -5.78655809748007
  H   7.48874535714496      2.13912049369670     -6.18989124062068
  H   8.78347346025006     -0.07754182276266     -2.74516862301176
  H   6.44615147558175     -0.82540014687932     -2.35020877512667
  S   3.97519026432940     -0.25428808630750     -3.72536870120795
  O   4.02462867961701     -1.58033035854573     -3.09655130325918
  O   3.22464803731845     -0.07584394938507     -4.97900299978076
  O   3.45234900402369      0.76652710247691     -2.64765576941657
  C   9.72967392325310      1.50832680624811     -4.75797564240696
  H   10.27179848959003      0.73441067746910     -5.31632372807156
  H   9.77369588991242      2.42805912910060     -5.34861991420588
  H   10.27659194641995      1.67620661806299     -3.82514587658847
  H   -2.68316791912456      1.04103261083749     -0.96523389019373
