Coordinates from ORCA-job Ph-N2-X-Cl-B3LYPG-6-31G_dp-scan-d09-49-n400
 OpenBabel08281821073D

 14 14  0  0  0  0  0  0  0  0999 V2000
   -1.4213   -1.5806   -1.2567 C   0  0  0  0  0  0  0  0  0  0  0  0
   -0.0610   -1.3313   -1.4004 C   0  0  0  0  0  0  0  0  0  0  0  0
    0.4601   -0.1264   -0.9093 C   0  0  0  0  0  0  0  0  0  0  0  0
   -0.3429    0.8363   -0.2791 C   0  0  0  0  0  0  0  0  0  0  0  0
   -1.7023    0.5636   -0.1473 C   0  0  0  0  0  0  0  0  0  0  0  0
   -2.2391   -0.6338   -0.6305 C   0  0  0  0  0  0  0  0  0  0  0  0
   -1.8437   -2.5078   -1.6296 H   0  0  0  0  0  0  0  0  0  0  0  0
    0.6023   -2.0434   -1.8792 H   0  0  0  0  0  0  0  0  0  0  0  0
    0.1233    1.7495    0.0790 H   0  0  0  0  0  0  0  0  0  0  0  0
   -2.3459    1.2919    0.3359 H   0  0  0  0  0  0  0  0  0  0  0  0
    1.8443    0.0657   -1.0847 N   0  0  0  0  0  0  0  0  0  0  0  0
    2.7116    0.8207   -0.8781 N   0  0  0  0  0  0  0  0  0  0  0  0
    2.2243    2.6671    0.1391 Cl  0  0  0  0  0  0  0  0  0  0  0  0
   -3.3010   -0.8316   -0.5180 H   0  0  0  0  0  0  0  0  0  0  0  0
  1  6  1  0  0  0  0
  2  1  2  0  0  0  0
  2  3  1  0  0  0  0
  3  4  2  0  0  0  0
  4  5  1  0  0  0  0
  4  9  1  0  0  0  0
  5 10  1  0  0  0  0
  6 14  1  0  0  0  0
  6  5  2  0  0  0  0
  7  1  1  0  0  0  0
  8  2  1  0  0  0  0
 11  3  1  0  0  0  0
 11 12  2  0  0  0  0
 12 13  1  0  0  0  0
M  END
