Coordinates from ORCA-job Ph-N2-X-Cl-B3LYPG-6-31G_dp-scan-d09-49-n400
 OpenBabel08281821073D

 14 14  0  0  0  0  0  0  0  0999 V2000
   -1.4203   -1.5799   -1.2622 C   0  0  0  0  0  0  0  0  0  0  0  0
   -0.0610   -1.3185   -1.3934 C   0  0  0  0  0  0  0  0  0  0  0  0
    0.4534   -0.1130   -0.8942 C   0  0  0  0  0  0  0  0  0  0  0  0
   -0.3644    0.8385   -0.2641 C   0  0  0  0  0  0  0  0  0  0  0  0
   -1.7225    0.5539   -0.1433 C   0  0  0  0  0  0  0  0  0  0  0  0
   -2.2493   -0.6435   -0.6367 C   0  0  0  0  0  0  0  0  0  0  0  0
   -1.8318   -2.5083   -1.6440 H   0  0  0  0  0  0  0  0  0  0  0  0
    0.6107   -2.0234   -1.8710 H   0  0  0  0  0  0  0  0  0  0  0  0
    0.0673    1.7584    0.1087 H   0  0  0  0  0  0  0  0  0  0  0  0
   -2.3734    1.2754    0.3402 H   0  0  0  0  0  0  0  0  0  0  0  0
    1.8387    0.0675   -1.0686 N   0  0  0  0  0  0  0  0  0  0  0  0
    2.7317    0.7985   -0.8855 N   0  0  0  0  0  0  0  0  0  0  0  0
    2.3403    2.6828    0.0876 Cl  0  0  0  0  0  0  0  0  0  0  0  0
   -3.3106   -0.8485   -0.5323 H   0  0  0  0  0  0  0  0  0  0  0  0
  1  6  1  0  0  0  0
  2  1  2  0  0  0  0
  2  3  1  0  0  0  0
  3  4  2  0  0  0  0
  4  5  1  0  0  0  0
  4  9  1  0  0  0  0
  5 10  1  0  0  0  0
  6 14  1  0  0  0  0
  6  5  2  0  0  0  0
  7  1  1  0  0  0  0
  8  2  1  0  0  0  0
 11  3  1  0  0  0  0
 11 12  2  0  0  0  0
 12 13  1  0  0  0  0
M  END
