Coordinates from ORCA-job Ph-N2-X-Cl-B3LYPG-6-31G_dp-scan-d09-49-n400
 OpenBabel08281821073D

 14 14  0  0  0  0  0  0  0  0999 V2000
   -1.2569   -1.1670   -1.5596 C   0  0  0  0  0  0  0  0  0  0  0  0
    0.0950   -0.8869   -1.3712 C   0  0  0  0  0  0  0  0  0  0  0  0
    0.4452    0.0186   -0.3660 C   0  0  0  0  0  0  0  0  0  0  0  0
   -0.5048    0.6326    0.4490 C   0  0  0  0  0  0  0  0  0  0  0  0
   -1.8529    0.3613    0.2260 C   0  0  0  0  0  0  0  0  0  0  0  0
   -2.2275   -0.5441   -0.7701 C   0  0  0  0  0  0  0  0  0  0  0  0
   -1.5520   -1.8681   -2.3341 H   0  0  0  0  0  0  0  0  0  0  0  0
    0.8608   -1.3459   -1.9841 H   0  0  0  0  0  0  0  0  0  0  0  0
   -0.1727    1.3322    1.2065 H   0  0  0  0  0  0  0  0  0  0  0  0
   -2.6071    0.8502    0.8339 H   0  0  0  0  0  0  0  0  0  0  0  0
    1.8122    0.2929   -0.0942 N   0  0  0  0  0  0  0  0  0  0  0  0
    2.7098    0.7224   -0.7237 N   0  0  0  0  0  0  0  0  0  0  0  0
    2.2372    1.3081   -2.6399 Cl  0  0  0  0  0  0  0  0  0  0  0  0
   -3.2778   -0.7664   -0.9313 H   0  0  0  0  0  0  0  0  0  0  0  0
  1  2  2  0  0  0  0
  1  6  1  0  0  0  0
  2  3  1  0  0  0  0
  3 11  1  0  0  0  0
  3  4  2  0  0  0  0
  4  9  1  0  0  0  0
  5  4  1  0  0  0  0
  5 10  1  0  0  0  0
  6  5  2  0  0  0  0
  7  1  1  0  0  0  0
  8  2  1  0  0  0  0
 12 11  2  0  0  0  0
 13 12  1  0  0  0  0
 14  6  1  0  0  0  0
M  END
