Coordinates from ORCA-job Ph-N2-X-Cl-B3LYPG-6-31G_dp-scan-d09-49-n400
 OpenBabel08281821073D

 14 14  0  0  0  0  0  0  0  0999 V2000
   -1.2826   -1.2358   -1.5343 C   0  0  0  0  0  0  0  0  0  0  0  0
    0.0803   -1.0113   -1.3476 C   0  0  0  0  0  0  0  0  0  0  0  0
    0.4688   -0.0659   -0.3971 C   0  0  0  0  0  0  0  0  0  0  0  0
   -0.4524    0.6365    0.3786 C   0  0  0  0  0  0  0  0  0  0  0  0
   -1.8107    0.4061    0.1662 C   0  0  0  0  0  0  0  0  0  0  0  0
   -2.2258   -0.5310   -0.7828 C   0  0  0  0  0  0  0  0  0  0  0  0
   -1.6059   -1.9611   -2.2746 H   0  0  0  0  0  0  0  0  0  0  0  0
    0.8267   -1.5421   -1.9271 H   0  0  0  0  0  0  0  0  0  0  0  0
   -0.1023    1.3627    1.1034 H   0  0  0  0  0  0  0  0  0  0  0  0
   -2.5427    0.9590    0.7459 H   0  0  0  0  0  0  0  0  0  0  0  0
    1.8569    0.1435   -0.1509 N   0  0  0  0  0  0  0  0  0  0  0  0
    2.7018    0.7408   -0.7118 N   0  0  0  0  0  0  0  0  0  0  0  0
    2.0816    1.7513   -2.3900 Cl  0  0  0  0  0  0  0  0  0  0  0  0
   -3.2850   -0.7128   -0.9367 H   0  0  0  0  0  0  0  0  0  0  0  0
  1  2  2  0  0  0  0
  1  6  1  0  0  0  0
  2  3  1  0  0  0  0
  3 11  1  0  0  0  0
  3  4  2  0  0  0  0
  4  9  1  0  0  0  0
  5  4  1  0  0  0  0
  5 10  1  0  0  0  0
  6  5  2  0  0  0  0
  7  1  1  0  0  0  0
  8  2  1  0  0  0  0
 12 11  1  0  0  0  0
 13 12  1  0  0  0  0
 14  6  1  0  0  0  0
M  RAD  2  11   2  12   2
M  END
