Coordinates from ORCA-job Ph-N2-X-Cl-B3LYPG-6-31G_dp-scan-d09-49-n400
 OpenBabel08281821073D

 14 14  0  0  0  0  0  0  0  0999 V2000
   -1.3483   -1.3545   -1.4805 C   0  0  0  0  0  0  0  0  0  0  0  0
    0.0269   -1.1773   -1.3427 C   0  0  0  0  0  0  0  0  0  0  0  0
    0.4875   -0.1476   -0.5195 C   0  0  0  0  0  0  0  0  0  0  0  0
   -0.3815    0.6661    0.2126 C   0  0  0  0  0  0  0  0  0  0  0  0
   -1.7528    0.4584    0.0728 C   0  0  0  0  0  0  0  0  0  0  0  0
   -2.2372   -0.5410   -0.7743 C   0  0  0  0  0  0  0  0  0  0  0  0
   -1.7232   -2.1352   -2.1349 H   0  0  0  0  0  0  0  0  0  0  0  0
    0.7343   -1.8053   -1.8726 H   0  0  0  0  0  0  0  0  0  0  0  0
    0.0023    1.4309    0.8786 H   0  0  0  0  0  0  0  0  0  0  0  0
   -2.4429    1.0850    0.6287 H   0  0  0  0  0  0  0  0  0  0  0  0
    1.8931   -0.0043   -0.3571 N   0  0  0  0  0  0  0  0  0  0  0  0
    2.7113    0.7771   -0.6705 N   0  0  0  0  0  0  0  0  0  0  0  0
    2.0466    2.3782   -1.8212 Cl  0  0  0  0  0  0  0  0  0  0  0  0
   -3.3075   -0.6906   -0.8783 H   0  0  0  0  0  0  0  0  0  0  0  0
  1  2  2  0  0  0  0
  1  6  1  0  0  0  0
  2  3  1  0  0  0  0
  3 11  1  0  0  0  0
  3  4  2  0  0  0  0
  4  9  1  0  0  0  0
  5  4  1  0  0  0  0
  5 10  1  0  0  0  0
  6  5  2  0  0  0  0
  7  1  1  0  0  0  0
  8  2  1  0  0  0  0
 12 11  2  0  0  0  0
 13 12  1  0  0  0  0
 14  6  1  0  0  0  0
M  END
