Coordinates from ORCA-job Ph-N2-X-Cl-B3LYPG-6-31G_dp-scan-d09-49-n400
 OpenBabel08281821073D

 14 14  0  0  0  0  0  0  0  0999 V2000
   -1.3751   -1.4045   -1.4507 C   0  0  0  0  0  0  0  0  0  0  0  0
    0.0028   -1.2311   -1.3480 C   0  0  0  0  0  0  0  0  0  0  0  0
    0.4907   -0.1654   -0.5860 C   0  0  0  0  0  0  0  0  0  0  0  0
   -0.3586    0.6873    0.1277 C   0  0  0  0  0  0  0  0  0  0  0  0
   -1.7332    0.4780    0.0314 C   0  0  0  0  0  0  0  0  0  0  0  0
   -2.2423   -0.5536   -0.7611 C   0  0  0  0  0  0  0  0  0  0  0  0
   -1.7697   -2.2121   -2.0593 H   0  0  0  0  0  0  0  0  0  0  0  0
    0.6963   -1.8892   -1.8596 H   0  0  0  0  0  0  0  0  0  0  0  0
    0.0407    1.4765    0.7534 H   0  0  0  0  0  0  0  0  0  0  0  0
   -2.4073    1.1298    0.5779 H   0  0  0  0  0  0  0  0  0  0  0  0
    1.8986   -0.0376   -0.4766 N   0  0  0  0  0  0  0  0  0  0  0  0
    2.7191    0.7779   -0.6722 N   0  0  0  0  0  0  0  0  0  0  0  0
    2.0624    2.5849   -1.5026 Cl  0  0  0  0  0  0  0  0  0  0  0  0
   -3.3158   -0.7008   -0.8330 H   0  0  0  0  0  0  0  0  0  0  0  0
  1  2  2  0  0  0  0
  1  6  1  0  0  0  0
  2  3  1  0  0  0  0
  3 11  1  0  0  0  0
  3  4  2  0  0  0  0
  4  9  1  0  0  0  0
  5  4  1  0  0  0  0
  5 10  1  0  0  0  0
  6  5  2  0  0  0  0
  7  1  1  0  0  0  0
  8  2  1  0  0  0  0
 12 11  2  0  0  0  0
 13 12  1  0  0  0  0
 14  6  1  0  0  0  0
M  END
