Coordinates from ORCA-job Ph-N2-X-Cl-B3LYPG-6-31G_dp-scan-d09-49-n400
 OpenBabel08281821073D

 14 14  0  0  0  0  0  0  0  0999 V2000
   -1.3153   -1.2967   -1.5090 C   0  0  0  0  0  0  0  0  0  0  0  0
    0.0550   -1.1046   -1.3407 C   0  0  0  0  0  0  0  0  0  0  0  0
    0.4814   -0.1168   -0.4520 C   0  0  0  0  0  0  0  0  0  0  0  0
   -0.4122    0.6477    0.2998 C   0  0  0  0  0  0  0  0  0  0  0  0
   -1.7780    0.4354    0.1179 C   0  0  0  0  0  0  0  0  0  0  0  0
   -2.2303   -0.5313   -0.7830 C   0  0  0  0  0  0  0  0  0  0  0  0
   -1.6658   -2.0486   -2.2093 H   0  0  0  0  0  0  0  0  0  0  0  0
    0.7806   -1.6905   -1.8935 H   0  0  0  0  0  0  0  0  0  0  0  0
   -0.0451    1.3920    0.9980 H   0  0  0  0  0  0  0  0  0  0  0  0
   -2.4879    1.0305    0.6834 H   0  0  0  0  0  0  0  0  0  0  0  0
    1.8810    0.0539   -0.2426 N   0  0  0  0  0  0  0  0  0  0  0  0
    2.7031    0.7667   -0.6879 N   0  0  0  0  0  0  0  0  0  0  0  0
    2.0383    2.0928   -2.1229 Cl  0  0  0  0  0  0  0  0  0  0  0  0
   -3.2959   -0.6904   -0.9169 H   0  0  0  0  0  0  0  0  0  0  0  0
  1  2  2  0  0  0  0
  1  6  1  0  0  0  0
  2  3  1  0  0  0  0
  3 11  1  0  0  0  0
  3  4  2  0  0  0  0
  4  9  1  0  0  0  0
  5  4  1  0  0  0  0
  5 10  1  0  0  0  0
  6  5  2  0  0  0  0
  7  1  1  0  0  0  0
  8  2  1  0  0  0  0
 12 11  2  0  0  0  0
 13 12  1  0  0  0  0
 14  6  1  0  0  0  0
M  END
