Coordinates from ORCA-job Ph-N2-X-Cl-B3LYPG-6-31G_dp-scan-d09-49-n400
 OpenBabel08281821073D

 14 13  0  0  0  0  0  0  0  0999 V2000
   -1.4236   -1.5795   -1.2556 C   0  0  0  0  0  0  0  0  0  0  0  0
   -0.0611   -1.3464   -1.4077 C   0  0  0  0  0  0  0  0  0  0  0  0
    0.4671   -0.1445   -0.9195 C   0  0  0  0  0  0  0  0  0  0  0  0
   -0.3180    0.8296   -0.2870 C   0  0  0  0  0  0  0  0  0  0  0  0
   -1.6795    0.5718   -0.1477 C   0  0  0  0  0  0  0  0  0  0  0  0
   -2.2284   -0.6220   -0.6269 C   0  0  0  0  0  0  0  0  0  0  0  0
   -1.8588   -2.5026   -1.6238 H   0  0  0  0  0  0  0  0  0  0  0  0
    0.5927   -2.0660   -1.8883 H   0  0  0  0  0  0  0  0  0  0  0  0
    0.1905    1.7335    0.0592 H   0  0  0  0  0  0  0  0  0  0  0  0
   -2.3150    1.3063    0.3369 H   0  0  0  0  0  0  0  0  0  0  0  0
    1.8510    0.0608   -1.0890 N   0  0  0  0  0  0  0  0  0  0  0  0
    2.6896    0.8409   -0.8650 N   0  0  0  0  0  0  0  0  0  0  0  0
    2.0939    2.6681    0.1652 Cl  0  0  0  0  0  0  0  0  0  0  0  0
   -3.2917   -0.8101   -0.5096 H   0  0  0  0  0  0  0  0  0  0  0  0
  1  6  1  0  0  0  0
  2  1  2  0  0  0  0
  2  3  1  0  0  0  0
  3  4  2  0  0  0  0
  4  5  1  0  0  0  0
  4  9  1  0  0  0  0
  5 10  1  0  0  0  0
  6 14  1  0  0  0  0
  6  5  2  0  0  0  0
  7  1  1  0  0  0  0
  8  2  1  0  0  0  0
 11  3  1  0  0  0  0
 11 12  2  0  0  0  0
M  RAD  2  12   2  13   2
M  END
