Coordinates from ORCA-job Ph-N2-X-Cl-B3LYPG-6-31G_dp-scan-d09-49-n400
 OpenBabel08281821073D

 14 13  0  0  0  0  0  0  0  0999 V2000
   -1.4282   -1.5790   -1.2555 C   0  0  0  0  0  0  0  0  0  0  0  0
   -0.0629   -1.3752   -1.4214 C   0  0  0  0  0  0  0  0  0  0  0  0
    0.4742   -0.1779   -0.9360 C   0  0  0  0  0  0  0  0  0  0  0  0
   -0.2728    0.8182   -0.2992 C   0  0  0  0  0  0  0  0  0  0  0  0
   -1.6386    0.5841   -0.1486 C   0  0  0  0  0  0  0  0  0  0  0  0
   -2.2091   -0.6022   -0.6216 C   0  0  0  0  0  0  0  0  0  0  0  0
   -1.8865   -2.4938   -1.6163 H   0  0  0  0  0  0  0  0  0  0  0  0
    0.5744   -2.1076   -1.9053 H   0  0  0  0  0  0  0  0  0  0  0  0
    0.3236    1.7153    0.0284 H   0  0  0  0  0  0  0  0  0  0  0  0
   -2.2614    1.3283    0.3389 H   0  0  0  0  0  0  0  0  0  0  0  0
    1.8591    0.0557   -1.0908 N   0  0  0  0  0  0  0  0  0  0  0  0
    2.6527    0.8672   -0.8447 N   0  0  0  0  0  0  0  0  0  0  0  0
    1.8589    2.6801    0.2095 Cl  0  0  0  0  0  0  0  0  0  0  0  0
   -3.2747   -0.7731   -0.4960 H   0  0  0  0  0  0  0  0  0  0  0  0
  1  6  1  0  0  0  0
  2  1  2  0  0  0  0
  2  3  1  0  0  0  0
  3  4  2  0  0  0  0
  4  5  1  0  0  0  0
  4  9  1  0  0  0  0
  5 10  1  0  0  0  0
  6 14  1  0  0  0  0
  6  5  2  0  0  0  0
  7  1  1  0  0  0  0
  8  2  1  0  0  0  0
 11  3  1  0  0  0  0
 11 12  2  0  0  0  0
M  RAD  2  12   2  13   2
M  END
