Coordinates from ORCA-job Ph-N2-X-Cl-B3LYPG-6-31G_dp-scan-d09-49-n400
 OpenBabel08281821073D

 14 14  0  0  0  0  0  0  0  0999 V2000
   -1.4202   -1.5193   -1.3522 C   0  0  0  0  0  0  0  0  0  0  0  0
   -0.0462   -1.3053   -1.3728 C   0  0  0  0  0  0  0  0  0  0  0  0
    0.4742   -0.1544   -0.7647 C   0  0  0  0  0  0  0  0  0  0  0  0
   -0.3481    0.7657   -0.0974 C   0  0  0  0  0  0  0  0  0  0  0  0
   -1.7189    0.5189   -0.0701 C   0  0  0  0  0  0  0  0  0  0  0  0
   -2.2554   -0.6083   -0.6989 C   0  0  0  0  0  0  0  0  0  0  0  0
   -1.8371   -2.3985   -1.8325 H   0  0  0  0  0  0  0  0  0  0  0  0
    0.6303   -2.0019   -1.8557 H   0  0  0  0  0  0  0  0  0  0  0  0
    0.0765    1.6364    0.3828 H   0  0  0  0  0  0  0  0  0  0  0  0
   -2.3715    1.2170    0.4444 H   0  0  0  0  0  0  0  0  0  0  0  0
    1.8760   -0.0203   -0.8200 N   0  0  0  0  0  0  0  0  0  0  0  0
    2.7443    0.7621   -0.7710 N   0  0  0  0  0  0  0  0  0  0  0  0
    2.2320    2.8294   -0.5780 Cl  0  0  0  0  0  0  0  0  0  0  0  0
   -3.3272   -0.7813   -0.6728 H   0  0  0  0  0  0  0  0  0  0  0  0
  1  6  1  0  0  0  0
  2  1  2  0  0  0  0
  2  3  1  0  0  0  0
  3  4  2  0  0  0  0
  4  5  1  0  0  0  0
  4  9  1  0  0  0  0
  5 10  1  0  0  0  0
  6 14  1  0  0  0  0
  6  5  2  0  0  0  0
  7  1  1  0  0  0  0
  8  2  1  0  0  0  0
 11 12  2  0  0  0  0
 11  3  1  0  0  0  0
 12 13  1  0  0  0  0
M  END
