Coordinates from ORCA-job Ph-N2-X-Cl-B3LYPG-6-31G_dp-scan-d09-49-n400
 OpenBabel08281821073D

 14 14  0  0  0  0  0  0  0  0999 V2000
   -1.4208   -1.5808   -1.2574 C   0  0  0  0  0  0  0  0  0  0  0  0
   -0.0610   -1.3272   -1.3984 C   0  0  0  0  0  0  0  0  0  0  0  0
    0.4577   -0.1216   -0.9057 C   0  0  0  0  0  0  0  0  0  0  0  0
   -0.3502    0.8379   -0.2760 C   0  0  0  0  0  0  0  0  0  0  0  0
   -1.7089    0.5610   -0.1468 C   0  0  0  0  0  0  0  0  0  0  0  0
   -2.2422   -0.6371   -0.6319 C   0  0  0  0  0  0  0  0  0  0  0  0
   -1.8396   -2.5089   -1.6321 H   0  0  0  0  0  0  0  0  0  0  0  0
    0.6050   -2.0371   -1.8767 H   0  0  0  0  0  0  0  0  0  0  0  0
    0.1055    1.7535    0.0856 H   0  0  0  0  0  0  0  0  0  0  0  0
   -2.3551    1.2872    0.3362 H   0  0  0  0  0  0  0  0  0  0  0  0
    1.8421    0.0673   -1.0821 N   0  0  0  0  0  0  0  0  0  0  0  0
    2.7177    0.8144   -0.8815 N   0  0  0  0  0  0  0  0  0  0  0  0
    2.2623    2.6691    0.1292 Cl  0  0  0  0  0  0  0  0  0  0  0  0
   -3.3038   -0.8377   -0.5212 H   0  0  0  0  0  0  0  0  0  0  0  0
  1  6  1  0  0  0  0
  2  1  2  0  0  0  0
  2  3  1  0  0  0  0
  3  4  2  0  0  0  0
  4  5  1  0  0  0  0
  4  9  1  0  0  0  0
  5 10  1  0  0  0  0
  6 14  1  0  0  0  0
  6  5  2  0  0  0  0
  7  1  1  0  0  0  0
  8  2  1  0  0  0  0
 11  3  1  0  0  0  0
 11 12  2  0  0  0  0
 12 13  1  0  0  0  0
M  END
