Coordinates from ORCA-job Ph-N2-X-Cl-B3LYPG-6-31G_dp-scan-d09-49-n400
 OpenBabel08281821073D

 14 14  0  0  0  0  0  0  0  0999 V2000
   -1.2681   -1.2035   -1.5464 C   0  0  0  0  0  0  0  0  0  0  0  0
    0.0899   -0.9556   -1.3557 C   0  0  0  0  0  0  0  0  0  0  0  0
    0.4594   -0.0304   -0.3773 C   0  0  0  0  0  0  0  0  0  0  0  0
   -0.4761    0.6334    0.4145 C   0  0  0  0  0  0  0  0  0  0  0  0
   -1.8299    0.3872    0.1931 C   0  0  0  0  0  0  0  0  0  0  0  0
   -2.2253   -0.5351   -0.7788 C   0  0  0  0  0  0  0  0  0  0  0  0
   -1.5776   -1.9167   -2.3042 H   0  0  0  0  0  0  0  0  0  0  0  0
    0.8464   -1.4539   -1.9503 H   0  0  0  0  0  0  0  0  0  0  0  0
   -0.1348    1.3485    1.1539 H   0  0  0  0  0  0  0  0  0  0  0  0
   -2.5731    0.9129    0.7837 H   0  0  0  0  0  0  0  0  0  0  0  0
    1.8389    0.2058   -0.1172 N   0  0  0  0  0  0  0  0  0  0  0  0
    2.7043    0.7282   -0.7211 N   0  0  0  0  0  0  0  0  0  0  0  0
    2.1353    1.5527   -2.5141 Cl  0  0  0  0  0  0  0  0  0  0  0  0
   -3.2806   -0.7336   -0.9387 H   0  0  0  0  0  0  0  0  0  0  0  0
  1  2  2  0  0  0  0
  1  6  1  0  0  0  0
  2  3  1  0  0  0  0
  3 11  1  0  0  0  0
  3  4  2  0  0  0  0
  4  9  1  0  0  0  0
  5  4  1  0  0  0  0
  5 10  1  0  0  0  0
  6  5  2  0  0  0  0
  7  1  1  0  0  0  0
  8  2  1  0  0  0  0
 12 11  1  0  0  0  0
 13 12  1  0  0  0  0
 14  6  1  0  0  0  0
M  RAD  2  11   2  12   2
M  END
