Coordinates from ORCA-job Ph-N2-X-Cl-B3LYPG-6-31G_dp-scan-d09-49-n400
 OpenBabel08281821073D

 14 13  0  0  0  0  0  0  0  0999 V2000
   -1.4267   -1.5788   -1.2552 C   0  0  0  0  0  0  0  0  0  0  0  0
   -0.0621   -1.3663   -1.4173 C   0  0  0  0  0  0  0  0  0  0  0  0
    0.4729   -0.1678   -0.9314 C   0  0  0  0  0  0  0  0  0  0  0  0
   -0.2865    0.8215   -0.2959 C   0  0  0  0  0  0  0  0  0  0  0  0
   -1.6508    0.5809   -0.1482 C   0  0  0  0  0  0  0  0  0  0  0  0
   -2.2148   -0.6079   -0.6230 C   0  0  0  0  0  0  0  0  0  0  0  0
   -1.8781   -2.4962   -1.6182 H   0  0  0  0  0  0  0  0  0  0  0  0
    0.5801   -2.0950   -1.9001 H   0  0  0  0  0  0  0  0  0  0  0  0
    0.2819    1.7177    0.0360 H   0  0  0  0  0  0  0  0  0  0  0  0
   -2.2772    1.3224    0.3384 H   0  0  0  0  0  0  0  0  0  0  0  0
    1.8572    0.0569   -1.0907 N   0  0  0  0  0  0  0  0  0  0  0  0
    2.6627    0.8614   -0.8495 N   0  0  0  0  0  0  0  0  0  0  0  0
    1.9299    2.6750    0.1962 Cl  0  0  0  0  0  0  0  0  0  0  0  0
   -3.2797   -0.7839   -0.4997 H   0  0  0  0  0  0  0  0  0  0  0  0
  1  6  1  0  0  0  0
  2  1  2  0  0  0  0
  2  3  1  0  0  0  0
  3  4  2  0  0  0  0
  4  5  1  0  0  0  0
  4  9  1  0  0  0  0
  5 10  1  0  0  0  0
  6 14  1  0  0  0  0
  6  5  2  0  0  0  0
  7  1  1  0  0  0  0
  8  2  1  0  0  0  0
 11  3  1  0  0  0  0
 11 12  2  0  0  0  0
M  RAD  2  12   2  13   2
M  END
