Coordinates from ORCA-job Ph-N2-X-Cl-B3LYPG-6-31G_dp-scan-d09-49-n400
 OpenBabel08281821073D

 14 14  0  0  0  0  0  0  0  0999 V2000
   -1.4235   -1.5796   -1.2556 C   0  0  0  0  0  0  0  0  0  0  0  0
   -0.0612   -1.3456   -1.4073 C   0  0  0  0  0  0  0  0  0  0  0  0
    0.4665   -0.1436   -0.9190 C   0  0  0  0  0  0  0  0  0  0  0  0
   -0.3195    0.8299   -0.2866 C   0  0  0  0  0  0  0  0  0  0  0  0
   -1.6809    0.5713   -0.1477 C   0  0  0  0  0  0  0  0  0  0  0  0
   -2.2290   -0.6227   -0.6271 C   0  0  0  0  0  0  0  0  0  0  0  0
   -1.8580   -2.5030   -1.6241 H   0  0  0  0  0  0  0  0  0  0  0  0
    0.5932   -2.0648   -1.8878 H   0  0  0  0  0  0  0  0  0  0  0  0
    0.1872    1.7342    0.0601 H   0  0  0  0  0  0  0  0  0  0  0  0
   -2.3169    1.3055    0.3368 H   0  0  0  0  0  0  0  0  0  0  0  0
    1.8505    0.0612   -1.0887 N   0  0  0  0  0  0  0  0  0  0  0  0
    2.6907    0.8400   -0.8657 N   0  0  0  0  0  0  0  0  0  0  0  0
    2.1019    2.6686    0.1641 Cl  0  0  0  0  0  0  0  0  0  0  0  0
   -3.2922   -0.8114   -0.5101 H   0  0  0  0  0  0  0  0  0  0  0  0
  1  6  1  0  0  0  0
  2  1  2  0  0  0  0
  2  3  1  0  0  0  0
  3  4  2  0  0  0  0
  4  5  1  0  0  0  0
  4  9  1  0  0  0  0
  5 10  1  0  0  0  0
  6 14  1  0  0  0  0
  6  5  2  0  0  0  0
  7  1  1  0  0  0  0
  8  2  1  0  0  0  0
 11  3  1  0  0  0  0
 11 12  2  0  0  0  0
 12 13  1  0  0  0  0
M  END
