Coordinates from ORCA-job Ph-N2-X-Cl-B3LYPG-6-31G_dp-scan-d09-49-n400
 OpenBabel08281821073D

 14 13  0  0  0  0  0  0  0  0999 V2000
   -1.4557   -1.6629   -1.2894 C   0  0  0  0  0  0  0  0  0  0  0  0
   -0.1017   -1.5011   -1.4765 C   0  0  0  0  0  0  0  0  0  0  0  0
    0.4356   -0.2803   -0.9835 C   0  0  0  0  0  0  0  0  0  0  0  0
   -0.1941    0.7961   -0.3321 C   0  0  0  0  0  0  0  0  0  0  0  0
   -1.5828    0.5266   -0.1919 C   0  0  0  0  0  0  0  0  0  0  0  0
   -2.1926   -0.6399   -0.6429 C   0  0  0  0  0  0  0  0  0  0  0  0
   -1.9526   -2.5641   -1.6330 H   0  0  0  0  0  0  0  0  0  0  0  0
    0.5137   -2.2521   -1.9638 H   0  0  0  0  0  0  0  0  0  0  0  0
    0.7408    2.5327    0.3576 H   0  0  0  0  0  0  0  0  0  0  0  0
   -2.2110    1.2714    0.2961 H   0  0  0  0  0  0  0  0  0  0  0  0
    1.7985   -0.0871   -1.1544 N   0  0  0  0  0  0  0  0  0  0  0  0
    2.8917    0.1256   -1.2632 N   0  0  0  0  0  0  0  0  0  0  0  0
    1.2808    3.4581    0.7185 Cl  0  0  0  0  0  0  0  0  0  0  0  0
   -3.2621   -0.7830   -0.5003 H   0  0  0  0  0  0  0  0  0  0  0  0
  1  6  1  0  0  0  0
  2  1  2  0  0  0  0
  2  3  1  0  0  0  0
  3  4  2  0  0  0  0
  4  5  1  0  0  0  0
  5 10  1  0  0  0  0
  6 14  1  0  0  0  0
  6  5  2  0  0  0  0
  7  1  1  0  0  0  0
  8  2  1  0  0  0  0
  9 13  1  0  0  0  0
 11  3  1  0  0  0  0
 12 11  1  0  0  0  0
M  RAD  3   4   2  11   2  12   3
M  END
