Coordinates from ORCA-job Ph-N2-X-Cl-B3LYPG-6-31G_dp-scan-d09-49-n400
 OpenBabel08281821073D

 14 13  0  0  0  0  0  0  0  0999 V2000
   -1.4306   -1.5810   -1.2558 C   0  0  0  0  0  0  0  0  0  0  0  0
   -0.0649   -1.3892   -1.4280 C   0  0  0  0  0  0  0  0  0  0  0  0
    0.4731   -0.1923   -0.9432 C   0  0  0  0  0  0  0  0  0  0  0  0
   -0.2529    0.8150   -0.3050 C   0  0  0  0  0  0  0  0  0  0  0  0
   -1.6211    0.5879   -0.1504 C   0  0  0  0  0  0  0  0  0  0  0  0
   -2.2010   -0.5953   -0.6197 C   0  0  0  0  0  0  0  0  0  0  0  0
   -1.8988   -2.4924   -1.6128 H   0  0  0  0  0  0  0  0  0  0  0  0
    0.5660   -2.1266   -1.9129 H   0  0  0  0  0  0  0  0  0  0  0  0
    0.3912    1.7249    0.0201 H   0  0  0  0  0  0  0  0  0  0  0  0
   -2.2398    1.3355    0.3379 H   0  0  0  0  0  0  0  0  0  0  0  0
    1.8598    0.0549   -1.0917 N   0  0  0  0  0  0  0  0  0  0  0  0
    2.6428    0.8685   -0.8428 N   0  0  0  0  0  0  0  0  0  0  0  0
    1.7525    2.6889    0.2357 Cl  0  0  0  0  0  0  0  0  0  0  0  0
   -3.2675   -0.7588   -0.4902 H   0  0  0  0  0  0  0  0  0  0  0  0
  1  6  1  0  0  0  0
  2  1  2  0  0  0  0
  2  3  1  0  0  0  0
  3  4  2  0  0  0  0
  4  5  1  0  0  0  0
  4  9  1  0  0  0  0
  5 10  1  0  0  0  0
  6 14  1  0  0  0  0
  6  5  2  0  0  0  0
  7  1  1  0  0  0  0
  8  2  1  0  0  0  0
 11  3  1  0  0  0  0
 11 12  2  0  0  0  0
M  RAD  2  12   2  13   2
M  END
