Coordinates from ORCA-job Ph-N2-X-Cl-B3LYPG-6-31G_dp-scan-d09-49-n400
 OpenBabel08281821073D

 14 14  0  0  0  0  0  0  0  0999 V2000
   -1.2587   -1.1749   -1.5567 C   0  0  0  0  0  0  0  0  0  0  0  0
    0.0946   -0.9025   -1.3671 C   0  0  0  0  0  0  0  0  0  0  0  0
    0.4488    0.0070   -0.3672 C   0  0  0  0  0  0  0  0  0  0  0  0
   -0.4984    0.6325    0.4421 C   0  0  0  0  0  0  0  0  0  0  0  0
   -1.8478    0.3675    0.2185 C   0  0  0  0  0  0  0  0  0  0  0  0
   -2.2266   -0.5416   -0.7725 C   0  0  0  0  0  0  0  0  0  0  0  0
   -1.5567   -1.8786   -2.3279 H   0  0  0  0  0  0  0  0  0  0  0  0
    0.8587   -1.3703   -1.9757 H   0  0  0  0  0  0  0  0  0  0  0  0
   -0.1644    1.3358    1.1955 H   0  0  0  0  0  0  0  0  0  0  0  0
   -2.5998    0.8651    0.8220 H   0  0  0  0  0  0  0  0  0  0  0  0
    1.8188    0.2722   -0.0976 N   0  0  0  0  0  0  0  0  0  0  0  0
    2.7083    0.7225   -0.7241 N   0  0  0  0  0  0  0  0  0  0  0  0
    2.2100    1.3636   -2.6140 Cl  0  0  0  0  0  0  0  0  0  0  0  0
   -3.2781   -0.7582   -0.9341 H   0  0  0  0  0  0  0  0  0  0  0  0
  1  2  2  0  0  0  0
  1  6  1  0  0  0  0
  2  3  1  0  0  0  0
  3 11  1  0  0  0  0
  3  4  2  0  0  0  0
  4  9  1  0  0  0  0
  5  4  1  0  0  0  0
  5 10  1  0  0  0  0
  6  5  2  0  0  0  0
  7  1  1  0  0  0  0
  8  2  1  0  0  0  0
 12 11  2  0  0  0  0
 13 12  1  0  0  0  0
 14  6  1  0  0  0  0
M  END
