Coordinates from ORCA-job Ph-N2-X-Cl-B3LYPG-6-31G_dp-scan-d09-49-n400
 OpenBabel08281821073D

 14 13  0  0  0  0  0  0  0  0999 V2000
   -1.4378   -1.5945   -1.2612 C   0  0  0  0  0  0  0  0  0  0  0  0
   -0.0736   -1.4138   -1.4385 C   0  0  0  0  0  0  0  0  0  0  0  0
    0.4529   -0.2118   -0.9486 C   0  0  0  0  0  0  0  0  0  0  0  0
   -0.2340    0.8142   -0.3087 C   0  0  0  0  0  0  0  0  0  0  0  0
   -1.6078    0.5817   -0.1560 C   0  0  0  0  0  0  0  0  0  0  0  0
   -2.1967   -0.5974   -0.6216 C   0  0  0  0  0  0  0  0  0  0  0  0
   -1.9160   -2.5020   -1.6147 H   0  0  0  0  0  0  0  0  0  0  0  0
    0.5536   -2.1543   -1.9244 H   0  0  0  0  0  0  0  0  0  0  0  0
    0.5185    1.8198    0.0431 H   0  0  0  0  0  0  0  0  0  0  0  0
   -2.2283    1.3292    0.3326 H   0  0  0  0  0  0  0  0  0  0  0  0
    1.8438    0.0572   -1.0869 N   0  0  0  0  0  0  0  0  0  0  0  0
    2.6734    0.8089   -0.8781 N   0  0  0  0  0  0  0  0  0  0  0  0
    1.6251    2.7570    0.2926 Cl  0  0  0  0  0  0  0  0  0  0  0  0
   -3.2643   -0.7542   -0.4884 H   0  0  0  0  0  0  0  0  0  0  0  0
  1  6  1  0  0  0  0
  2  1  2  0  0  0  0
  2  3  1  0  0  0  0
  3  4  2  0  0  0  0
  4  5  1  0  0  0  0
  4  9  1  0  0  0  0
  5 10  1  0  0  0  0
  6 14  1  0  0  0  0
  6  5  2  0  0  0  0
  7  1  1  0  0  0  0
  8  2  1  0  0  0  0
 11  3  1  0  0  0  0
 11 12  2  0  0  0  0
M  RAD  2  12   2  13   2
M  END
