Coordinates from ORCA-job Ph-N2-X-Cl-B3LYPG-6-31G_dp-scan-d09-49-n400
 OpenBabel08281821073D

 14 14  0  0  0  0  0  0  0  0999 V2000
   -1.3132   -1.2929   -1.5107 C   0  0  0  0  0  0  0  0  0  0  0  0
    0.0567   -1.0993   -1.3409 C   0  0  0  0  0  0  0  0  0  0  0  0
    0.4807   -0.1142   -0.4481 C   0  0  0  0  0  0  0  0  0  0  0  0
   -0.4145    0.6467    0.3051 C   0  0  0  0  0  0  0  0  0  0  0  0
   -1.7799    0.4337    0.1209 C   0  0  0  0  0  0  0  0  0  0  0  0
   -2.2300   -0.5309   -0.7833 C   0  0  0  0  0  0  0  0  0  0  0  0
   -1.6620   -2.0430   -2.2138 H   0  0  0  0  0  0  0  0  0  0  0  0
    0.7836   -1.6820   -1.8953 H   0  0  0  0  0  0  0  0  0  0  0  0
   -0.0485    1.3899    1.0052 H   0  0  0  0  0  0  0  0  0  0  0  0
   -2.4912    1.0264    0.6871 H   0  0  0  0  0  0  0  0  0  0  0  0
    1.8798    0.0586   -0.2360 N   0  0  0  0  0  0  0  0  0  0  0  0
    2.7028    0.7654   -0.6893 N   0  0  0  0  0  0  0  0  0  0  0  0
    2.0394    2.0727   -2.1412 Cl  0  0  0  0  0  0  0  0  0  0  0  0
   -3.2952   -0.6911   -0.9187 H   0  0  0  0  0  0  0  0  0  0  0  0
  1  2  2  0  0  0  0
  1  6  1  0  0  0  0
  2  3  1  0  0  0  0
  3 11  1  0  0  0  0
  3  4  2  0  0  0  0
  4  9  1  0  0  0  0
  5  4  1  0  0  0  0
  5 10  1  0  0  0  0
  6  5  2  0  0  0  0
  7  1  1  0  0  0  0
  8  2  1  0  0  0  0
 12 11  2  0  0  0  0
 13 12  1  0  0  0  0
 14  6  1  0  0  0  0
M  END
