Coordinates from ORCA-job Ph-N2-X-Cl-B3LYPG-6-31G_dp-scan-d09-49-n400
 OpenBabel08281821073D

 14 13  0  0  0  0  0  0  0  0999 V2000
   -1.4248   -1.5791   -1.2552 C   0  0  0  0  0  0  0  0  0  0  0  0
   -0.0614   -1.3547   -1.4118 C   0  0  0  0  0  0  0  0  0  0  0  0
    0.4699   -0.1544   -0.9250 C   0  0  0  0  0  0  0  0  0  0  0  0
   -0.3046    0.8262   -0.2912 C   0  0  0  0  0  0  0  0  0  0  0  0
   -1.6673    0.5759   -0.1480 C   0  0  0  0  0  0  0  0  0  0  0  0
   -2.2226   -0.6159   -0.6250 C   0  0  0  0  0  0  0  0  0  0  0  0
   -1.8670   -2.4999   -1.6210 H   0  0  0  0  0  0  0  0  0  0  0  0
    0.5874   -2.0783   -1.8933 H   0  0  0  0  0  0  0  0  0  0  0  0
    0.2286    1.7260    0.0481 H   0  0  0  0  0  0  0  0  0  0  0  0
   -2.2987    1.3136    0.3374 H   0  0  0  0  0  0  0  0  0  0  0  0
    1.8539    0.0590   -1.0903 N   0  0  0  0  0  0  0  0  0  0  0  0
    2.6777    0.8506   -0.8579 N   0  0  0  0  0  0  0  0  0  0  0  0
    2.0242    2.6700    0.1794 Cl  0  0  0  0  0  0  0  0  0  0  0  0
   -3.2865   -0.7989   -0.5050 H   0  0  0  0  0  0  0  0  0  0  0  0
  1  6  1  0  0  0  0
  2  1  2  0  0  0  0
  2  3  1  0  0  0  0
  3  4  2  0  0  0  0
  4  5  1  0  0  0  0
  4  9  1  0  0  0  0
  5 10  1  0  0  0  0
  6 14  1  0  0  0  0
  6  5  2  0  0  0  0
  7  1  1  0  0  0  0
  8  2  1  0  0  0  0
 11  3  1  0  0  0  0
 11 12  2  0  0  0  0
M  RAD  2  12   2  13   2
M  END
