Coordinates from ORCA-job Ph-N2-X-Cl-B3LYPG-6-31G_dp-scan-d09-49-n400
 OpenBabel08281821073D

 14 13  0  0  0  0  0  0  0  0999 V2000
   -1.4454   -1.6479   -1.2838 C   0  0  0  0  0  0  0  0  0  0  0  0
   -0.0917   -1.4708   -1.4632 C   0  0  0  0  0  0  0  0  0  0  0  0
    0.4307   -0.2465   -0.9658 C   0  0  0  0  0  0  0  0  0  0  0  0
   -0.2206    0.8176   -0.3165 C   0  0  0  0  0  0  0  0  0  0  0  0
   -1.6049    0.5371   -0.1826 C   0  0  0  0  0  0  0  0  0  0  0  0
   -2.1982   -0.6360   -0.6399 C   0  0  0  0  0  0  0  0  0  0  0  0
   -1.9295   -2.5543   -1.6322 H   0  0  0  0  0  0  0  0  0  0  0  0
    0.5343   -2.2139   -1.9485 H   0  0  0  0  0  0  0  0  0  0  0  0
    0.7023    2.3771    0.2867 H   0  0  0  0  0  0  0  0  0  0  0  0
   -2.2414    1.2754    0.3037 H   0  0  0  0  0  0  0  0  0  0  0  0
    1.7924   -0.0366   -1.1282 N   0  0  0  0  0  0  0  0  0  0  0  0
    2.8825    0.1922   -1.2283 N   0  0  0  0  0  0  0  0  0  0  0  0
    1.3648    3.3382    0.6439 Cl  0  0  0  0  0  0  0  0  0  0  0  0
   -3.2666   -0.7917   -0.5039 H   0  0  0  0  0  0  0  0  0  0  0  0
  1  6  1  0  0  0  0
  2  1  2  0  0  0  0
  2  3  1  0  0  0  0
  3  4  2  0  0  0  0
  4  5  1  0  0  0  0
  5 10  1  0  0  0  0
  6 14  1  0  0  0  0
  6  5  2  0  0  0  0
  7  1  1  0  0  0  0
  8  2  1  0  0  0  0
  9 13  1  0  0  0  0
 11  3  1  0  0  0  0
 12 11  1  0  0  0  0
M  RAD  3   4   2  11   2  12   3
M  END
