Coordinates from ORCA-job Ph-N2-X-Cl-B3LYPG-6-31G_dp-scan-d09-49-n400
 OpenBabel08281821073D

 14 14  0  0  0  0  0  0  0  0999 V2000
   -1.3337   -1.3290   -1.4937 C   0  0  0  0  0  0  0  0  0  0  0  0
    0.0396   -1.1475   -1.3408 C   0  0  0  0  0  0  0  0  0  0  0  0
    0.4856   -0.1362   -0.4881 C   0  0  0  0  0  0  0  0  0  0  0  0
   -0.3938    0.6571    0.2523 C   0  0  0  0  0  0  0  0  0  0  0  0
   -1.7629    0.4489    0.0926 C   0  0  0  0  0  0  0  0  0  0  0  0
   -2.2338   -0.5354   -0.7794 C   0  0  0  0  0  0  0  0  0  0  0  0
   -1.6982   -2.0965   -2.1694 H   0  0  0  0  0  0  0  0  0  0  0  0
    0.7546   -1.7583   -1.8803 H   0  0  0  0  0  0  0  0  0  0  0  0
   -0.0171    1.4122    0.9335 H   0  0  0  0  0  0  0  0  0  0  0  0
   -2.4615    1.0624    0.6524 H   0  0  0  0  0  0  0  0  0  0  0  0
    1.8893    0.0179   -0.3034 N   0  0  0  0  0  0  0  0  0  0  0  0
    2.7066    0.7749   -0.6770 N   0  0  0  0  0  0  0  0  0  0  0  0
    2.0361    2.2572   -1.9596 Cl  0  0  0  0  0  0  0  0  0  0  0  0
   -3.3022   -0.6877   -0.8978 H   0  0  0  0  0  0  0  0  0  0  0  0
  1  2  2  0  0  0  0
  1  6  1  0  0  0  0
  2  3  1  0  0  0  0
  3 11  1  0  0  0  0
  3  4  2  0  0  0  0
  4  9  1  0  0  0  0
  5  4  1  0  0  0  0
  5 10  1  0  0  0  0
  6  5  2  0  0  0  0
  7  1  1  0  0  0  0
  8  2  1  0  0  0  0
 12 11  2  0  0  0  0
 13 12  1  0  0  0  0
 14  6  1  0  0  0  0
M  END
