Coordinates from ORCA-job Ph-N2-X-Cl-B3LYPG-6-31G_dp-scan-d09-49-n400
 OpenBabel08281821073D

 14 14  0  0  0  0  0  0  0  0999 V2000
   -1.2544   -1.1344   -1.5712 C   0  0  0  0  0  0  0  0  0  0  0  0
    0.0912   -0.8200   -1.3931 C   0  0  0  0  0  0  0  0  0  0  0  0
    0.4277    0.0716   -0.3691 C   0  0  0  0  0  0  0  0  0  0  0  0
   -0.5321    0.6346    0.4733 C   0  0  0  0  0  0  0  0  0  0  0  0
   -1.8743    0.3328    0.2589 C   0  0  0  0  0  0  0  0  0  0  0  0
   -2.2333   -0.5576   -0.7568 C   0  0  0  0  0  0  0  0  0  0  0  0
   -1.5390   -1.8271   -2.3571 H   0  0  0  0  0  0  0  0  0  0  0  0
    0.8617   -1.2424   -2.0249 H   0  0  0  0  0  0  0  0  0  0  0  0
   -0.2079    1.3169    1.2497 H   0  0  0  0  0  0  0  0  0  0  0  0
   -2.6351    0.7823    0.8884 H   0  0  0  0  0  0  0  0  0  0  0  0
    1.7809    0.3890   -0.0932 N   0  0  0  0  0  0  0  0  0  0  0  0
    2.7178    0.7316   -0.7166 N   0  0  0  0  0  0  0  0  0  0  0  0
    2.3841    1.0691   -2.7346 Cl  0  0  0  0  0  0  0  0  0  0  0  0
   -3.2786   -0.8064   -0.9124 H   0  0  0  0  0  0  0  0  0  0  0  0
  1  2  2  0  0  0  0
  1  6  1  0  0  0  0
  2  3  1  0  0  0  0
  3 11  1  0  0  0  0
  3  4  2  0  0  0  0
  4  9  1  0  0  0  0
  5  4  1  0  0  0  0
  5 10  1  0  0  0  0
  6  5  2  0  0  0  0
  7  1  1  0  0  0  0
  8  2  1  0  0  0  0
 12 11  2  0  0  0  0
 13 12  1  0  0  0  0
 14  6  1  0  0  0  0
M  END
