Coordinates from ORCA-job Ph-N2-X-Cl-B3LYPG-6-31G_dp-scan-d09-49-n400
 OpenBabel08281821073D

 14 13  0  0  0  0  0  0  0  0999 V2000
   -1.4362   -1.5907   -1.2597 C   0  0  0  0  0  0  0  0  0  0  0  0
   -0.0714   -1.4094   -1.4368 C   0  0  0  0  0  0  0  0  0  0  0  0
    0.4589   -0.2093   -0.9486 C   0  0  0  0  0  0  0  0  0  0  0  0
   -0.2346    0.8137   -0.3088 C   0  0  0  0  0  0  0  0  0  0  0  0
   -1.6073    0.5845   -0.1546 C   0  0  0  0  0  0  0  0  0  0  0  0
   -2.1959   -0.5950   -0.6205 C   0  0  0  0  0  0  0  0  0  0  0  0
   -1.9138   -2.4984   -1.6134 H   0  0  0  0  0  0  0  0  0  0  0  0
    0.5553   -2.1502   -1.9227 H   0  0  0  0  0  0  0  0  0  0  0  0
    0.4953    1.7929    0.0341 H   0  0  0  0  0  0  0  0  0  0  0  0
   -2.2262    1.3329    0.3342 H   0  0  0  0  0  0  0  0  0  0  0  0
    1.8496    0.0558   -1.0887 N   0  0  0  0  0  0  0  0  0  0  0  0
    2.6603    0.8296   -0.8650 N   0  0  0  0  0  0  0  0  0  0  0  0
    1.6381    2.7355    0.2792 Cl  0  0  0  0  0  0  0  0  0  0  0  0
   -3.2634   -0.7519   -0.4874 H   0  0  0  0  0  0  0  0  0  0  0  0
  1  6  1  0  0  0  0
  2  1  2  0  0  0  0
  2  3  1  0  0  0  0
  3  4  2  0  0  0  0
  4  5  1  0  0  0  0
  4  9  1  0  0  0  0
  5 10  1  0  0  0  0
  6 14  1  0  0  0  0
  6  5  2  0  0  0  0
  7  1  1  0  0  0  0
  8  2  1  0  0  0  0
 11  3  1  0  0  0  0
 11 12  2  0  0  0  0
M  RAD  2  12   2  13   2
M  END
