Coordinates from ORCA-job Ph-N2-X-Cl-B3LYPG-6-31G_dp-scan-d09-49-n400
 OpenBabel08281821073D

 14 14  0  0  0  0  0  0  0  0999 V2000
   -1.2550   -1.1240   -1.5751 C   0  0  0  0  0  0  0  0  0  0  0  0
    0.0884   -0.7981   -1.4015 C   0  0  0  0  0  0  0  0  0  0  0  0
    0.4215    0.0895   -0.3721 C   0  0  0  0  0  0  0  0  0  0  0  0
   -0.5406    0.6356    0.4798 C   0  0  0  0  0  0  0  0  0  0  0  0
   -1.8806    0.3226    0.2699 C   0  0  0  0  0  0  0  0  0  0  0  0
   -2.2356   -0.5628   -0.7518 C   0  0  0  0  0  0  0  0  0  0  0  0
   -1.5368   -1.8139   -2.3644 H   0  0  0  0  0  0  0  0  0  0  0  0
    0.8599   -1.2082   -2.0397 H   0  0  0  0  0  0  0  0  0  0  0  0
   -0.2188    1.3125    1.2620 H   0  0  0  0  0  0  0  0  0  0  0  0
   -2.6427    0.7587    0.9071 H   0  0  0  0  0  0  0  0  0  0  0  0
    1.7700    0.4222   -0.0970 N   0  0  0  0  0  0  0  0  0  0  0  0
    2.7199    0.7383   -0.7135 N   0  0  0  0  0  0  0  0  0  0  0  0
    2.4383    0.9882   -2.7582 Cl  0  0  0  0  0  0  0  0  0  0  0  0
   -3.2791   -0.8205   -0.9044 H   0  0  0  0  0  0  0  0  0  0  0  0
  1  2  2  0  0  0  0
  1  6  1  0  0  0  0
  2  3  1  0  0  0  0
  3 11  1  0  0  0  0
  3  4  2  0  0  0  0
  4  9  1  0  0  0  0
  5  4  1  0  0  0  0
  5 10  1  0  0  0  0
  6  5  2  0  0  0  0
  7  1  1  0  0  0  0
  8  2  1  0  0  0  0
 12 11  2  0  0  0  0
 13 12  1  0  0  0  0
 14  6  1  0  0  0  0
M  END
