Coordinates from ORCA-job Ph-N2-X-Cl-B3LYPG-6-31G_dp-scan-d09-49-n400
 OpenBabel08281821073D

 14 14  0  0  0  0  0  0  0  0999 V2000
   -1.3175   -1.3005   -1.5073 C   0  0  0  0  0  0  0  0  0  0  0  0
    0.0533   -1.1099   -1.3406 C   0  0  0  0  0  0  0  0  0  0  0  0
    0.4820   -0.1194   -0.4560 C   0  0  0  0  0  0  0  0  0  0  0  0
   -0.4099    0.6486    0.2944 C   0  0  0  0  0  0  0  0  0  0  0  0
   -1.7761    0.4370    0.1150 C   0  0  0  0  0  0  0  0  0  0  0  0
   -2.2307   -0.5316   -0.7828 C   0  0  0  0  0  0  0  0  0  0  0  0
   -1.6696   -2.0541   -2.2049 H   0  0  0  0  0  0  0  0  0  0  0  0
    0.7776   -1.6989   -1.8918 H   0  0  0  0  0  0  0  0  0  0  0  0
   -0.0417    1.3942    0.9908 H   0  0  0  0  0  0  0  0  0  0  0  0
   -2.4847    1.0344    0.6797 H   0  0  0  0  0  0  0  0  0  0  0  0
    1.8821    0.0493   -0.2493 N   0  0  0  0  0  0  0  0  0  0  0  0
    2.7034    0.7679   -0.6865 N   0  0  0  0  0  0  0  0  0  0  0  0
    2.0372    2.1127   -2.1046 Cl  0  0  0  0  0  0  0  0  0  0  0  0
   -3.2966   -0.6897   -0.9150 H   0  0  0  0  0  0  0  0  0  0  0  0
  1  2  2  0  0  0  0
  1  6  1  0  0  0  0
  2  3  1  0  0  0  0
  3 11  1  0  0  0  0
  3  4  2  0  0  0  0
  4  9  1  0  0  0  0
  5  4  1  0  0  0  0
  5 10  1  0  0  0  0
  6  5  2  0  0  0  0
  7  1  1  0  0  0  0
  8  2  1  0  0  0  0
 12 11  2  0  0  0  0
 13 12  1  0  0  0  0
 14  6  1  0  0  0  0
M  END
