Coordinates from ORCA-job Ph-N2-X-Cl-B3LYPG-6-31G_dp-scan-d09-49-n400
 OpenBabel08281821073D

 14 14  0  0  0  0  0  0  0  0999 V2000
   -1.2558   -1.1608   -1.5618 C   0  0  0  0  0  0  0  0  0  0  0  0
    0.0950   -0.8746   -1.3747 C   0  0  0  0  0  0  0  0  0  0  0  0
    0.4423    0.0280   -0.3656 C   0  0  0  0  0  0  0  0  0  0  0  0
   -0.5099    0.6328    0.4541 C   0  0  0  0  0  0  0  0  0  0  0  0
   -1.8569    0.3563    0.2319 C   0  0  0  0  0  0  0  0  0  0  0  0
   -2.2283   -0.5463   -0.7680 C   0  0  0  0  0  0  0  0  0  0  0  0
   -1.5487   -1.8602   -2.3387 H   0  0  0  0  0  0  0  0  0  0  0  0
    0.8620   -1.3266   -1.9910 H   0  0  0  0  0  0  0  0  0  0  0  0
   -0.1793    1.3294    1.2150 H   0  0  0  0  0  0  0  0  0  0  0  0
   -2.6126    0.8382    0.8435 H   0  0  0  0  0  0  0  0  0  0  0  0
    1.8069    0.3097   -0.0924 N   0  0  0  0  0  0  0  0  0  0  0  0
    2.7111    0.7229   -0.7230 N   0  0  0  0  0  0  0  0  0  0  0  0
    2.2607    1.2642   -2.6595 Cl  0  0  0  0  0  0  0  0  0  0  0  0
   -3.2777   -0.7732   -0.9286 H   0  0  0  0  0  0  0  0  0  0  0  0
  1  2  2  0  0  0  0
  1  6  1  0  0  0  0
  2  3  1  0  0  0  0
  3 11  1  0  0  0  0
  3  4  2  0  0  0  0
  4  9  1  0  0  0  0
  5  4  1  0  0  0  0
  5 10  1  0  0  0  0
  6  5  2  0  0  0  0
  7  1  1  0  0  0  0
  8  2  1  0  0  0  0
 12 11  2  0  0  0  0
 13 12  1  0  0  0  0
 14  6  1  0  0  0  0
M  END
