Coordinates from ORCA-job Ph-N2-X-Cl-B3LYPG-6-31G_dp-scan-d09-49-n400
 OpenBabel08281821073D

 14 13  0  0  0  0  0  0  0  0999 V2000
   -1.4317   -1.6236   -1.2746 C   0  0  0  0  0  0  0  0  0  0  0  0
   -0.0777   -1.4329   -1.4470 C   0  0  0  0  0  0  0  0  0  0  0  0
    0.4325   -0.2074   -0.9462 C   0  0  0  0  0  0  0  0  0  0  0  0
   -0.2433    0.8410   -0.2996 C   0  0  0  0  0  0  0  0  0  0  0  0
   -1.6220    0.5562   -0.1695 C   0  0  0  0  0  0  0  0  0  0  0  0
   -2.1995   -0.6233   -0.6334 C   0  0  0  0  0  0  0  0  0  0  0  0
   -1.9036   -2.5344   -1.6278 H   0  0  0  0  0  0  0  0  0  0  0  0
    0.5574   -2.1688   -1.9308 H   0  0  0  0  0  0  0  0  0  0  0  0
    0.6199    2.1708    0.1981 H   0  0  0  0  0  0  0  0  0  0  0  0
   -2.2633    1.2902    0.3156 H   0  0  0  0  0  0  0  0  0  0  0  0
    1.7931    0.0217   -1.0988 N   0  0  0  0  0  0  0  0  0  0  0  0
    2.8772    0.2775   -1.1845 N   0  0  0  0  0  0  0  0  0  0  0  0
    1.4362    3.1638    0.5435 Cl  0  0  0  0  0  0  0  0  0  0  0  0
   -3.2666   -0.7907   -0.5038 H   0  0  0  0  0  0  0  0  0  0  0  0
  1  6  1  0  0  0  0
  2  1  2  0  0  0  0
  2  3  1  0  0  0  0
  3  4  2  0  0  0  0
  4  5  1  0  0  0  0
  5 10  1  0  0  0  0
  6 14  1  0  0  0  0
  6  5  2  0  0  0  0
  7  1  1  0  0  0  0
  8  2  1  0  0  0  0
  9 13  1  0  0  0  0
 11  3  1  0  0  0  0
 12 11  1  0  0  0  0
M  RAD  3   4   2  11   2  12   3
M  END
