Coordinates from ORCA-job Ph-N2-X-Cl-B3LYPG-6-31G_dp-scan-d09-49-n400
 OpenBabel08281821073D

 14 14  0  0  0  0  0  0  0  0999 V2000
   -1.4204   -1.5785   -1.2660 C   0  0  0  0  0  0  0  0  0  0  0  0
   -0.0610   -1.3156   -1.3914 C   0  0  0  0  0  0  0  0  0  0  0  0
    0.4522   -0.1113   -0.8873 C   0  0  0  0  0  0  0  0  0  0  0  0
   -0.3689    0.8369   -0.2562 C   0  0  0  0  0  0  0  0  0  0  0  0
   -1.7271    0.5506   -0.1404 C   0  0  0  0  0  0  0  0  0  0  0  0
   -2.2521   -0.6451   -0.6398 C   0  0  0  0  0  0  0  0  0  0  0  0
   -1.8298   -2.5059   -1.6524 H   0  0  0  0  0  0  0  0  0  0  0  0
    0.6128   -2.0186   -1.8688 H   0  0  0  0  0  0  0  0  0  0  0  0
    0.0555    1.7570    0.1227 H   0  0  0  0  0  0  0  0  0  0  0  0
   -2.3797    1.2699    0.3441 H   0  0  0  0  0  0  0  0  0  0  0  0
    1.8381    0.0656   -1.0585 N   0  0  0  0  0  0  0  0  0  0  0  0
    2.7369    0.7916   -0.8845 N   0  0  0  0  0  0  0  0  0  0  0  0
    2.3658    2.6944    0.0591 Cl  0  0  0  0  0  0  0  0  0  0  0  0
   -3.3136   -0.8509   -0.5393 H   0  0  0  0  0  0  0  0  0  0  0  0
  1  6  1  0  0  0  0
  2  1  2  0  0  0  0
  2  3  1  0  0  0  0
  3  4  2  0  0  0  0
  4  5  1  0  0  0  0
  4  9  1  0  0  0  0
  5 10  1  0  0  0  0
  6 14  1  0  0  0  0
  6  5  2  0  0  0  0
  7  1  1  0  0  0  0
  8  2  1  0  0  0  0
 11  3  1  0  0  0  0
 11 12  2  0  0  0  0
 12 13  1  0  0  0  0
M  END
