Coordinates from ORCA-job Ph-N2-X-Cl-B3LYPG-6-31G_dp-scan-d09-49-n400
 OpenBabel08281821073D

 14 14  0  0  0  0  0  0  0  0999 V2000
   -1.4211   -1.5807   -1.2569 C   0  0  0  0  0  0  0  0  0  0  0  0
   -0.0610   -1.3297   -1.3996 C   0  0  0  0  0  0  0  0  0  0  0  0
    0.4591   -0.1245   -0.9079 C   0  0  0  0  0  0  0  0  0  0  0  0
   -0.3459    0.8370   -0.2779 C   0  0  0  0  0  0  0  0  0  0  0  0
   -1.7050    0.5626   -0.1471 C   0  0  0  0  0  0  0  0  0  0  0  0
   -2.2403   -0.6351   -0.6310 C   0  0  0  0  0  0  0  0  0  0  0  0
   -1.8420   -2.5083   -1.6305 H   0  0  0  0  0  0  0  0  0  0  0  0
    0.6034   -2.0409   -1.8782 H   0  0  0  0  0  0  0  0  0  0  0  0
    0.1163    1.7511    0.0815 H   0  0  0  0  0  0  0  0  0  0  0  0
   -2.3496    1.2901    0.3360 H   0  0  0  0  0  0  0  0  0  0  0  0
    1.8434    0.0664   -1.0837 N   0  0  0  0  0  0  0  0  0  0  0  0
    2.7140    0.8182   -0.8795 N   0  0  0  0  0  0  0  0  0  0  0  0
    2.2397    2.6679    0.1355 Cl  0  0  0  0  0  0  0  0  0  0  0  0
   -3.3021   -0.8340   -0.5192 H   0  0  0  0  0  0  0  0  0  0  0  0
  1  6  1  0  0  0  0
  2  1  2  0  0  0  0
  2  3  1  0  0  0  0
  3  4  2  0  0  0  0
  4  5  1  0  0  0  0
  4  9  1  0  0  0  0
  5 10  1  0  0  0  0
  6 14  1  0  0  0  0
  6  5  2  0  0  0  0
  7  1  1  0  0  0  0
  8  2  1  0  0  0  0
 11  3  1  0  0  0  0
 11 12  2  0  0  0  0
 12 13  1  0  0  0  0
M  END
