Coordinates from ORCA-job Ph-N2-X-Cl-B3LYPG-6-31G_dp-scan-d09-49-n400
 OpenBabel08281821073D

 14 14  0  0  0  0  0  0  0  0999 V2000
   -1.2545   -1.1460   -1.5670 C   0  0  0  0  0  0  0  0  0  0  0  0
    0.0934   -0.8443   -1.3846 C   0  0  0  0  0  0  0  0  0  0  0  0
    0.4344    0.0519   -0.3668 C   0  0  0  0  0  0  0  0  0  0  0  0
   -0.5224    0.6336    0.4652 C   0  0  0  0  0  0  0  0  0  0  0  0
   -1.8669    0.3436    0.2469 C   0  0  0  0  0  0  0  0  0  0  0  0
   -2.2309   -0.5523   -0.7620 C   0  0  0  0  0  0  0  0  0  0  0  0
   -1.5426   -1.8417   -2.3490 H   0  0  0  0  0  0  0  0  0  0  0  0
    0.8626   -1.2798   -2.0095 H   0  0  0  0  0  0  0  0  0  0  0  0
   -0.1950    1.3224    1.2345 H   0  0  0  0  0  0  0  0  0  0  0  0
   -2.6257    0.8077    0.8681 H   0  0  0  0  0  0  0  0  0  0  0  0
    1.7926    0.3532   -0.0912 N   0  0  0  0  0  0  0  0  0  0  0  0
    2.7150    0.7264   -0.7196 N   0  0  0  0  0  0  0  0  0  0  0  0
    2.3269    1.1568   -2.7037 Cl  0  0  0  0  0  0  0  0  0  0  0  0
   -3.2781   -0.7913   -0.9201 H   0  0  0  0  0  0  0  0  0  0  0  0
  1  2  2  0  0  0  0
  1  6  1  0  0  0  0
  2  3  1  0  0  0  0
  3 11  1  0  0  0  0
  3  4  2  0  0  0  0
  4  9  1  0  0  0  0
  5  4  1  0  0  0  0
  5 10  1  0  0  0  0
  6  5  2  0  0  0  0
  7  1  1  0  0  0  0
  8  2  1  0  0  0  0
 12 11  2  0  0  0  0
 13 12  1  0  0  0  0
 14  6  1  0  0  0  0
M  END
