Coordinates from ORCA-job Ph-N2-X-Cl-B3LYPG-6-31G_dp-scan-d09-49-n400
 OpenBabel08281821073D

 14 13  0  0  0  0  0  0  0  0999 V2000
   -1.4329   -1.6259   -1.2755 C   0  0  0  0  0  0  0  0  0  0  0  0
   -0.0790   -1.4360   -1.4483 C   0  0  0  0  0  0  0  0  0  0  0  0
    0.4318   -0.2104   -0.9477 C   0  0  0  0  0  0  0  0  0  0  0  0
   -0.2420    0.8393   -0.3009 C   0  0  0  0  0  0  0  0  0  0  0  0
   -1.6212    0.5543   -0.1707 C   0  0  0  0  0  0  0  0  0  0  0  0
   -2.1997   -0.6248   -0.6341 C   0  0  0  0  0  0  0  0  0  0  0  0
   -1.9055   -2.5365   -1.6283 H   0  0  0  0  0  0  0  0  0  0  0  0
    0.5557   -2.1724   -1.9321 H   0  0  0  0  0  0  0  0  0  0  0  0
    0.6288    2.1891    0.2056 H   0  0  0  0  0  0  0  0  0  0  0  0
   -2.2625    1.2884    0.3144 H   0  0  0  0  0  0  0  0  0  0  0  0
    1.7925    0.0173   -1.1010 N   0  0  0  0  0  0  0  0  0  0  0  0
    2.8773    0.2704   -1.1882 N   0  0  0  0  0  0  0  0  0  0  0  0
    1.4324    3.1787    0.5520 Cl  0  0  0  0  0  0  0  0  0  0  0  0
   -3.2669   -0.7915   -0.5041 H   0  0  0  0  0  0  0  0  0  0  0  0
  1  6  1  0  0  0  0
  2  1  2  0  0  0  0
  2  3  1  0  0  0  0
  3  4  2  0  0  0  0
  4  5  1  0  0  0  0
  5 10  1  0  0  0  0
  6 14  1  0  0  0  0
  6  5  2  0  0  0  0
  7  1  1  0  0  0  0
  8  2  1  0  0  0  0
  9 13  1  0  0  0  0
 11  3  1  0  0  0  0
 12 11  1  0  0  0  0
M  RAD  3   4   2  11   2  12   3
M  END
