Coordinates from ORCA-job Ph-N2-X-Cl-B3LYPG-6-31G_dp-scan-d09-49-n400
 OpenBabel08281821073D

 14 14  0  0  0  0  0  0  0  0999 V2000
   -1.2546   -1.1299   -1.5728 C   0  0  0  0  0  0  0  0  0  0  0  0
    0.0901   -0.8107   -1.3966 C   0  0  0  0  0  0  0  0  0  0  0  0
    0.4251    0.0792   -0.3702 C   0  0  0  0  0  0  0  0  0  0  0  0
   -0.5357    0.6350    0.4762 C   0  0  0  0  0  0  0  0  0  0  0  0
   -1.8770    0.3285    0.2635 C   0  0  0  0  0  0  0  0  0  0  0  0
   -2.2343   -0.5598   -0.7547 C   0  0  0  0  0  0  0  0  0  0  0  0
   -1.5379   -1.8215   -2.3602 H   0  0  0  0  0  0  0  0  0  0  0  0
    0.8611   -1.2279   -2.0311 H   0  0  0  0  0  0  0  0  0  0  0  0
   -0.2126    1.3150    1.2550 H   0  0  0  0  0  0  0  0  0  0  0  0
   -2.6384    0.7723    0.8963 H   0  0  0  0  0  0  0  0  0  0  0  0
    1.7763    0.4030   -0.0946 N   0  0  0  0  0  0  0  0  0  0  0  0
    2.7187    0.7342   -0.7154 N   0  0  0  0  0  0  0  0  0  0  0  0
    2.4069    1.0349   -2.7452 Cl  0  0  0  0  0  0  0  0  0  0  0  0
   -3.2788   -0.8123   -0.9091 H   0  0  0  0  0  0  0  0  0  0  0  0
  1  2  2  0  0  0  0
  1  6  1  0  0  0  0
  2  3  1  0  0  0  0
  3 11  1  0  0  0  0
  3  4  2  0  0  0  0
  4  9  1  0  0  0  0
  5  4  1  0  0  0  0
  5 10  1  0  0  0  0
  6  5  2  0  0  0  0
  7  1  1  0  0  0  0
  8  2  1  0  0  0  0
 12 11  2  0  0  0  0
 13 12  1  0  0  0  0
 14  6  1  0  0  0  0
M  END
