Coordinates from ORCA-job Ph-N2-X-Cl-B3LYPG-6-31G_dp-scan-d09-49-n400
 OpenBabel08281821073D

 14 13  0  0  0  0  0  0  0  0999 V2000
   -1.4259   -1.5788   -1.2553 C   0  0  0  0  0  0  0  0  0  0  0  0
   -0.0618   -1.3614   -1.4149 C   0  0  0  0  0  0  0  0  0  0  0  0
    0.4719   -0.1623   -0.9286 C   0  0  0  0  0  0  0  0  0  0  0  0
   -0.2940    0.8233   -0.2938 C   0  0  0  0  0  0  0  0  0  0  0  0
   -1.6577    0.5789   -0.1480 C   0  0  0  0  0  0  0  0  0  0  0  0
   -2.2181   -0.6111   -0.6239 C   0  0  0  0  0  0  0  0  0  0  0  0
   -1.8735   -2.4976   -1.6196 H   0  0  0  0  0  0  0  0  0  0  0  0
    0.5831   -2.0879   -1.8973 H   0  0  0  0  0  0  0  0  0  0  0  0
    0.2594    1.7203    0.0415 H   0  0  0  0  0  0  0  0  0  0  0  0
   -2.2860    1.3187    0.3382 H   0  0  0  0  0  0  0  0  0  0  0  0
    1.8560    0.0575   -1.0903 N   0  0  0  0  0  0  0  0  0  0  0  0
    2.6687    0.8573   -0.8527 N   0  0  0  0  0  0  0  0  0  0  0  0
    1.9691    2.6730    0.1880 Cl  0  0  0  0  0  0  0  0  0  0  0  0
   -3.2826   -0.7900   -0.5021 H   0  0  0  0  0  0  0  0  0  0  0  0
  1  6  1  0  0  0  0
  2  1  2  0  0  0  0
  2  3  1  0  0  0  0
  3  4  2  0  0  0  0
  4  5  1  0  0  0  0
  4  9  1  0  0  0  0
  5 10  1  0  0  0  0
  6 14  1  0  0  0  0
  6  5  2  0  0  0  0
  7  1  1  0  0  0  0
  8  2  1  0  0  0  0
 11  3  1  0  0  0  0
 11 12  2  0  0  0  0
M  RAD  2  12   2  13   2
M  END
