Coordinates from ORCA-job Ph-N2-X-Cl-B3LYPG-6-31G_dp-scan-d09-49-n400
 OpenBabel08281821073D

 14 13  0  0  0  0  0  0  0  0999 V2000
   -1.4645   -1.6825   -1.2963 C   0  0  0  0  0  0  0  0  0  0  0  0
   -0.1107   -1.5241   -1.4855 C   0  0  0  0  0  0  0  0  0  0  0  0
    0.4280   -0.3027   -0.9942 C   0  0  0  0  0  0  0  0  0  0  0  0
   -0.1932    0.7788   -0.3431 C   0  0  0  0  0  0  0  0  0  0  0  0
   -1.5839    0.5095   -0.2019 C   0  0  0  0  0  0  0  0  0  0  0  0
   -2.1975   -0.6558   -0.6499 C   0  0  0  0  0  0  0  0  0  0  0  0
   -1.9647   -2.5829   -1.6376 H   0  0  0  0  0  0  0  0  0  0  0  0
    0.5025   -2.2770   -1.9728 H   0  0  0  0  0  0  0  0  0  0  0  0
    0.8137    2.7083    0.4331 H   0  0  0  0  0  0  0  0  0  0  0  0
   -2.2123    1.2552    0.2854 H   0  0  0  0  0  0  0  0  0  0  0  0
    1.7918   -0.1116   -1.1668 N   0  0  0  0  0  0  0  0  0  0  0  0
    2.8854    0.1005   -1.2765 N   0  0  0  0  0  0  0  0  0  0  0  0
    1.2816    3.5204    0.7526 Cl  0  0  0  0  0  0  0  0  0  0  0  0
   -3.2673   -0.7962   -0.5053 H   0  0  0  0  0  0  0  0  0  0  0  0
  1  6  1  0  0  0  0
  2  1  2  0  0  0  0
  2  3  1  0  0  0  0
  3  4  2  0  0  0  0
  4  5  1  0  0  0  0
  5 10  1  0  0  0  0
  6 14  1  0  0  0  0
  6  5  2  0  0  0  0
  7  1  1  0  0  0  0
  8  2  1  0  0  0  0
  9 13  1  0  0  0  0
 11  3  1  0  0  0  0
 12 11  1  0  0  0  0
M  RAD  3   4   2  11   2  12   3
M  END
