Coordinates from ORCA-job Ph-N2-X-Cl-B3LYPG-6-31G_dp-scan-d09-49-n400
 OpenBabel08281821073D

 14 14  0  0  0  0  0  0  0  0999 V2000
   -1.3228   -1.3099   -1.5029 C   0  0  0  0  0  0  0  0  0  0  0  0
    0.0489   -1.1228   -1.3405 C   0  0  0  0  0  0  0  0  0  0  0  0
    0.4834   -0.1254   -0.4662 C   0  0  0  0  0  0  0  0  0  0  0  0
   -0.4043    0.6512    0.2808 C   0  0  0  0  0  0  0  0  0  0  0  0
   -1.7715    0.4411    0.1076 C   0  0  0  0  0  0  0  0  0  0  0  0
   -2.2316   -0.5326   -0.7819 C   0  0  0  0  0  0  0  0  0  0  0  0
   -1.6791   -2.0680   -2.1936 H   0  0  0  0  0  0  0  0  0  0  0  0
    0.7700   -1.7193   -1.8877 H   0  0  0  0  0  0  0  0  0  0  0  0
   -0.0333    1.3998    0.9723 H   0  0  0  0  0  0  0  0  0  0  0  0
   -2.4768    1.0440    0.6706 H   0  0  0  0  0  0  0  0  0  0  0  0
    1.8847    0.0382   -0.2665 N   0  0  0  0  0  0  0  0  0  0  0  0
    2.7042    0.7707   -0.6830 N   0  0  0  0  0  0  0  0  0  0  0  0
    2.0352    2.1613   -2.0579 Cl  0  0  0  0  0  0  0  0  0  0  0  0
   -3.2984   -0.6884   -0.9099 H   0  0  0  0  0  0  0  0  0  0  0  0
  1  2  2  0  0  0  0
  1  6  1  0  0  0  0
  2  3  1  0  0  0  0
  3 11  1  0  0  0  0
  3  4  2  0  0  0  0
  4  9  1  0  0  0  0
  5  4  1  0  0  0  0
  5 10  1  0  0  0  0
  6  5  2  0  0  0  0
  7  1  1  0  0  0  0
  8  2  1  0  0  0  0
 12 11  2  0  0  0  0
 13 12  1  0  0  0  0
 14  6  1  0  0  0  0
M  END
