Coordinates from ORCA-job Ph-N2-X-Cl-B3LYPG-6-31G_dp-scan-d09-49-n400
 OpenBabel08281821073D

 14 14  0  0  0  0  0  0  0  0999 V2000
   -1.3979   -1.4529   -1.4154 C   0  0  0  0  0  0  0  0  0  0  0  0
   -0.0192   -1.2720   -1.3557 C   0  0  0  0  0  0  0  0  0  0  0  0
    0.4888   -0.1717   -0.6559 C   0  0  0  0  0  0  0  0  0  0  0  0
   -0.3448    0.7134    0.0394 C   0  0  0  0  0  0  0  0  0  0  0  0
   -1.7202    0.4958   -0.0099 C   0  0  0  0  0  0  0  0  0  0  0  0
   -2.2475   -0.5714   -0.7417 C   0  0  0  0  0  0  0  0  0  0  0  0
   -1.8071   -2.2883   -1.9744 H   0  0  0  0  0  0  0  0  0  0  0  0
    0.6642   -1.9523   -1.8519 H   0  0  0  0  0  0  0  0  0  0  0  0
    0.0686    1.5331    0.6126 H   0  0  0  0  0  0  0  0  0  0  0  0
   -2.3820    1.1696    0.5250 H   0  0  0  0  0  0  0  0  0  0  0  0
    1.8968   -0.0492   -0.6101 N   0  0  0  0  0  0  0  0  0  0  0  0
    2.7290    0.7717   -0.6980 N   0  0  0  0  0  0  0  0  0  0  0  0
    2.1022    2.7367   -1.1451 Cl  0  0  0  0  0  0  0  0  0  0  0  0
   -3.3223   -0.7226   -0.7778 H   0  0  0  0  0  0  0  0  0  0  0  0
  1  2  2  0  0  0  0
  1  6  1  0  0  0  0
  2  3  1  0  0  0  0
  3 11  1  0  0  0  0
  3  4  2  0  0  0  0
  4  9  1  0  0  0  0
  5  4  1  0  0  0  0
  5 10  1  0  0  0  0
  6  5  2  0  0  0  0
  7  1  1  0  0  0  0
  8  2  1  0  0  0  0
 12 11  2  0  0  0  0
 13 12  1  0  0  0  0
 14  6  1  0  0  0  0
M  END
