Coordinates from ORCA-job Ph-N2-X-Cl-B3LYPG-6-31G_dp-scan-d09-49-n400
 OpenBabel08281821073D

 14 13  0  0  0  0  0  0  0  0999 V2000
   -1.4352   -1.6306   -1.2772 C   0  0  0  0  0  0  0  0  0  0  0  0
   -0.0814   -1.4423   -1.4509 C   0  0  0  0  0  0  0  0  0  0  0  0
    0.4306   -0.2165   -0.9507 C   0  0  0  0  0  0  0  0  0  0  0  0
   -0.2394    0.8358   -0.3035 C   0  0  0  0  0  0  0  0  0  0  0  0
   -1.6195    0.5505   -0.1731 C   0  0  0  0  0  0  0  0  0  0  0  0
   -2.2001   -0.6277   -0.6355 C   0  0  0  0  0  0  0  0  0  0  0  0
   -1.9094   -2.5406   -1.6293 H   0  0  0  0  0  0  0  0  0  0  0  0
    0.5522   -2.1795   -1.9348 H   0  0  0  0  0  0  0  0  0  0  0  0
    0.6461    2.2259    0.2208 H   0  0  0  0  0  0  0  0  0  0  0  0
   -2.2607    1.2849    0.3120 H   0  0  0  0  0  0  0  0  0  0  0  0
    1.7914    0.0083   -1.1055 N   0  0  0  0  0  0  0  0  0  0  0  0
    2.8774    0.2563   -1.1954 N   0  0  0  0  0  0  0  0  0  0  0  0
    1.4244    3.2086    0.5689 Cl  0  0  0  0  0  0  0  0  0  0  0  0
   -3.2675   -0.7930   -0.5046 H   0  0  0  0  0  0  0  0  0  0  0  0
  1  6  1  0  0  0  0
  2  1  2  0  0  0  0
  2  3  1  0  0  0  0
  3  4  2  0  0  0  0
  4  5  1  0  0  0  0
  5 10  1  0  0  0  0
  6 14  1  0  0  0  0
  6  5  2  0  0  0  0
  7  1  1  0  0  0  0
  8  2  1  0  0  0  0
  9 13  1  0  0  0  0
 11  3  1  0  0  0  0
 12 11  1  0  0  0  0
M  RAD  3   4   2  11   2  12   3
M  END
