Coordinates from ORCA-job Ph-N2-X-Cl-B3LYPG-6-31G_dp-scan-d09-49-n400
 OpenBabel08281821073D

 14 14  0  0  0  0  0  0  0  0999 V2000
   -1.2930   -1.2561   -1.5263 C   0  0  0  0  0  0  0  0  0  0  0  0
    0.0727   -1.0445   -1.3441 C   0  0  0  0  0  0  0  0  0  0  0  0
    0.4738   -0.0855   -0.4131 C   0  0  0  0  0  0  0  0  0  0  0  0
   -0.4380    0.6393    0.3537 C   0  0  0  0  0  0  0  0  0  0  0  0
   -1.7990    0.4167    0.1498 C   0  0  0  0  0  0  0  0  0  0  0  0
   -2.2268   -0.5299   -0.7839 C   0  0  0  0  0  0  0  0  0  0  0  0
   -1.6254   -1.9897   -2.2543 H   0  0  0  0  0  0  0  0  0  0  0  0
    0.8122   -1.5947   -1.9146 H   0  0  0  0  0  0  0  0  0  0  0  0
   -0.0821    1.3718    1.0696 H   0  0  0  0  0  0  0  0  0  0  0  0
   -2.5236    0.9851    0.7239 H   0  0  0  0  0  0  0  0  0  0  0  0
    1.8663    0.1098   -0.1776 N   0  0  0  0  0  0  0  0  0  0  0  0
    2.7011    0.7506   -0.7038 N   0  0  0  0  0  0  0  0  0  0  0  0
    2.0588    1.8698   -2.3056 Cl  0  0  0  0  0  0  0  0  0  0  0  0
   -3.2883   -0.7026   -0.9325 H   0  0  0  0  0  0  0  0  0  0  0  0
  1  2  2  0  0  0  0
  1  6  1  0  0  0  0
  2  3  1  0  0  0  0
  3 11  1  0  0  0  0
  3  4  2  0  0  0  0
  4  9  1  0  0  0  0
  5  4  1  0  0  0  0
  5 10  1  0  0  0  0
  6  5  2  0  0  0  0
  7  1  1  0  0  0  0
  8  2  1  0  0  0  0
 12 11  2  0  0  0  0
 13 12  1  0  0  0  0
 14  6  1  0  0  0  0
M  END
