Coordinates from ORCA-job Ph-N2-X-Cl-B3LYPG-6-31G_dp-scan-d09-49-n400
 OpenBabel08281821073D

 14 13  0  0  0  0  0  0  0  0999 V2000
   -1.4400   -1.6400   -1.2809 C   0  0  0  0  0  0  0  0  0  0  0  0
   -0.0865   -1.4549   -1.4562 C   0  0  0  0  0  0  0  0  0  0  0  0
    0.4282   -0.2290   -0.9566 C   0  0  0  0  0  0  0  0  0  0  0  0
   -0.2340    0.8285   -0.3084 C   0  0  0  0  0  0  0  0  0  0  0  0
   -1.6160    0.5426   -0.1777 C   0  0  0  0  0  0  0  0  0  0  0  0
   -2.2008   -0.6338   -0.6384 C   0  0  0  0  0  0  0  0  0  0  0  0
   -1.9175   -2.5488   -1.6317 H   0  0  0  0  0  0  0  0  0  0  0  0
    0.5449   -2.1940   -1.9406 H   0  0  0  0  0  0  0  0  0  0  0  0
    0.6798    2.3006    0.2521 H   0  0  0  0  0  0  0  0  0  0  0  0
   -2.2569    1.2775    0.3076 H   0  0  0  0  0  0  0  0  0  0  0  0
    1.7893   -0.0100   -1.1144 N   0  0  0  0  0  0  0  0  0  0  0  0
    2.8773    0.2294   -1.2088 N   0  0  0  0  0  0  0  0  0  0  0  0
    1.4097    3.2677    0.6009 Cl  0  0  0  0  0  0  0  0  0  0  0  0
   -3.2686   -0.7959   -0.5058 H   0  0  0  0  0  0  0  0  0  0  0  0
  1  6  1  0  0  0  0
  2  1  2  0  0  0  0
  2  3  1  0  0  0  0
  3  4  2  0  0  0  0
  4  5  1  0  0  0  0
  5 10  1  0  0  0  0
  6 14  1  0  0  0  0
  6  5  2  0  0  0  0
  7  1  1  0  0  0  0
  8  2  1  0  0  0  0
  9 13  1  0  0  0  0
 11  3  1  0  0  0  0
 12 11  1  0  0  0  0
M  RAD  3   4   2  11   2  12   3
M  END
