Coordinates from ORCA-job Ph-N2-X-Cl-B3LYPG-6-31G_dp-scan-d09-49-n400
 OpenBabel08281821073D

 14 14  0  0  0  0  0  0  0  0999 V2000
   -1.3625   -1.3804   -1.4658 C   0  0  0  0  0  0  0  0  0  0  0  0
    0.0143   -1.2066   -1.3452 C   0  0  0  0  0  0  0  0  0  0  0  0
    0.4897   -0.1582   -0.5534 C   0  0  0  0  0  0  0  0  0  0  0  0
   -0.3686    0.6765    0.1692 C   0  0  0  0  0  0  0  0  0  0  0  0
   -1.7419    0.4687    0.0515 C   0  0  0  0  0  0  0  0  0  0  0  0
   -2.2398   -0.5469   -0.7682 C   0  0  0  0  0  0  0  0  0  0  0  0
   -1.7481   -2.1747   -2.0973 H   0  0  0  0  0  0  0  0  0  0  0  0
    0.7140   -1.8511   -1.8655 H   0  0  0  0  0  0  0  0  0  0  0  0
    0.0234    1.4533    0.8155 H   0  0  0  0  0  0  0  0  0  0  0  0
   -2.4234    1.1087    0.6028 H   0  0  0  0  0  0  0  0  0  0  0  0
    1.8967   -0.0241   -0.4165 N   0  0  0  0  0  0  0  0  0  0  0  0
    2.7148    0.7789   -0.6679 N   0  0  0  0  0  0  0  0  0  0  0  0
    2.0521    2.4906   -1.6623 Cl  0  0  0  0  0  0  0  0  0  0  0  0
   -3.3119   -0.6945   -0.8560 H   0  0  0  0  0  0  0  0  0  0  0  0
  1  2  2  0  0  0  0
  1  6  1  0  0  0  0
  2  3  1  0  0  0  0
  3 11  1  0  0  0  0
  3  4  2  0  0  0  0
  4  9  1  0  0  0  0
  5  4  1  0  0  0  0
  5 10  1  0  0  0  0
  6  5  2  0  0  0  0
  7  1  1  0  0  0  0
  8  2  1  0  0  0  0
 12 11  2  0  0  0  0
 13 12  1  0  0  0  0
 14  6  1  0  0  0  0
M  END
