Coordinates from ORCA-job Ph-N2-X-Cl-B3LYPG-6-31G_dp-scan-d09-49-n400
 OpenBabel08281821073D

 14 14  0  0  0  0  0  0  0  0999 V2000
   -1.2554   -1.1210   -1.5762 C   0  0  0  0  0  0  0  0  0  0  0  0
    0.0874   -0.7917   -1.4040 C   0  0  0  0  0  0  0  0  0  0  0  0
    0.4196    0.0947   -0.3732 C   0  0  0  0  0  0  0  0  0  0  0  0
   -0.5429    0.6359    0.4816 C   0  0  0  0  0  0  0  0  0  0  0  0
   -1.8823    0.3196    0.2731 C   0  0  0  0  0  0  0  0  0  0  0  0
   -2.2363   -0.5644   -0.7502 C   0  0  0  0  0  0  0  0  0  0  0  0
   -1.5363   -1.8101   -2.3665 H   0  0  0  0  0  0  0  0  0  0  0  0
    0.8592   -1.1982   -2.0443 H   0  0  0  0  0  0  0  0  0  0  0  0
   -0.2218    1.3113    1.2654 H   0  0  0  0  0  0  0  0  0  0  0  0
   -2.6448    0.7518    0.9127 H   0  0  0  0  0  0  0  0  0  0  0  0
    1.7667    0.4319   -0.0985 N   0  0  0  0  0  0  0  0  0  0  0  0
    2.7204    0.7406   -0.7126 N   0  0  0  0  0  0  0  0  0  0  0  0
    2.4546    0.9645   -2.7643 Cl  0  0  0  0  0  0  0  0  0  0  0  0
   -3.2793   -0.8248   -0.9019 H   0  0  0  0  0  0  0  0  0  0  0  0
  1  2  2  0  0  0  0
  1  6  1  0  0  0  0
  2  3  1  0  0  0  0
  3 11  1  0  0  0  0
  3  4  2  0  0  0  0
  4  9  1  0  0  0  0
  5  4  1  0  0  0  0
  5 10  1  0  0  0  0
  6  5  2  0  0  0  0
  7  1  1  0  0  0  0
  8  2  1  0  0  0  0
 12 11  2  0  0  0  0
 13 12  1  0  0  0  0
 14  6  1  0  0  0  0
M  END
