Coordinates from ORCA-job Ph-N2-X-Cl-B3LYPG-6-31G_dp-scan-d09-49-n400
 OpenBabel08281821073D

 14 13  0  0  0  0  0  0  0  0999 V2000
   -1.4253   -1.5789   -1.2554 C   0  0  0  0  0  0  0  0  0  0  0  0
   -0.0616   -1.3576   -1.4131 C   0  0  0  0  0  0  0  0  0  0  0  0
    0.4709   -0.1579   -0.9263 C   0  0  0  0  0  0  0  0  0  0  0  0
   -0.3000    0.8248   -0.2921 C   0  0  0  0  0  0  0  0  0  0  0  0
   -1.6631    0.5772   -0.1479 C   0  0  0  0  0  0  0  0  0  0  0  0
   -2.2207   -0.6138   -0.6247 C   0  0  0  0  0  0  0  0  0  0  0  0
   -1.8698   -2.4988   -1.6207 H   0  0  0  0  0  0  0  0  0  0  0  0
    0.5856   -2.0824   -1.8950 H   0  0  0  0  0  0  0  0  0  0  0  0
    0.2418    1.7231    0.0459 H   0  0  0  0  0  0  0  0  0  0  0  0
   -2.2932    1.3157    0.3380 H   0  0  0  0  0  0  0  0  0  0  0  0
    1.8549    0.0582   -1.0901 N   0  0  0  0  0  0  0  0  0  0  0  0
    2.6738    0.8536   -0.8555 N   0  0  0  0  0  0  0  0  0  0  0  0
    2.0004    2.6717    0.1820 Cl  0  0  0  0  0  0  0  0  0  0  0  0
   -3.2849   -0.7950   -0.5039 H   0  0  0  0  0  0  0  0  0  0  0  0
  1  6  1  0  0  0  0
  2  1  2  0  0  0  0
  2  3  1  0  0  0  0
  3  4  2  0  0  0  0
  4  5  1  0  0  0  0
  4  9  1  0  0  0  0
  5 10  1  0  0  0  0
  6 14  1  0  0  0  0
  6  5  2  0  0  0  0
  7  1  1  0  0  0  0
  8  2  1  0  0  0  0
 11  3  1  0  0  0  0
 11 12  2  0  0  0  0
M  RAD  2  12   2  13   2
M  END
