Coordinates from ORCA-job Ph-N2-X-Cl-B3LYPG-6-31G_dp-scan-d09-49-n400
 OpenBabel08281821073D

 14 14  0  0  0  0  0  0  0  0999 V2000
   -1.4229   -1.5653   -1.2906 C   0  0  0  0  0  0  0  0  0  0  0  0
   -0.0591   -1.3123   -1.3854 C   0  0  0  0  0  0  0  0  0  0  0  0
    0.4558   -0.1210   -0.8526 C   0  0  0  0  0  0  0  0  0  0  0  0
   -0.3680    0.8182   -0.2114 C   0  0  0  0  0  0  0  0  0  0  0  0
   -1.7297    0.5392   -0.1211 C   0  0  0  0  0  0  0  0  0  0  0  0
   -2.2571   -0.6393   -0.6573 C   0  0  0  0  0  0  0  0  0  0  0  0
   -1.8330   -2.4811   -1.7034 H   0  0  0  0  0  0  0  0  0  0  0  0
    0.6172   -2.0125   -1.8633 H   0  0  0  0  0  0  0  0  0  0  0  0
    0.0507    1.7274    0.1970 H   0  0  0  0  0  0  0  0  0  0  0  0
   -2.3834    1.2518    0.3717 H   0  0  0  0  0  0  0  0  0  0  0  0
    1.8468    0.0407   -0.9944 N   0  0  0  0  0  0  0  0  0  0  0  0
    2.7461    0.7739   -0.8583 N   0  0  0  0  0  0  0  0  0  0  0  0
    2.3670    2.7585   -0.1117 Cl  0  0  0  0  0  0  0  0  0  0  0  0
   -3.3218   -0.8382   -0.5780 H   0  0  0  0  0  0  0  0  0  0  0  0
  1  6  1  0  0  0  0
  2  1  2  0  0  0  0
  2  3  1  0  0  0  0
  3  4  2  0  0  0  0
  4  5  1  0  0  0  0
  4  9  1  0  0  0  0
  5 10  1  0  0  0  0
  6 14  1  0  0  0  0
  6  5  2  0  0  0  0
  7  1  1  0  0  0  0
  8  2  1  0  0  0  0
 11 12  2  0  0  0  0
 11  3  1  0  0  0  0
 12 13  1  0  0  0  0
M  END
