Coordinates from ORCA-job Ph-N2-X-Cl-B3LYPG-6-31G_dp-scan-d09-49-n400
 OpenBabel08281821073D

 14 14  0  0  0  0  0  0  0  0999 V2000
   -1.2844   -1.2394   -1.5329 C   0  0  0  0  0  0  0  0  0  0  0  0
    0.0790   -1.0174   -1.3469 C   0  0  0  0  0  0  0  0  0  0  0  0
    0.4698   -0.0696   -0.3998 C   0  0  0  0  0  0  0  0  0  0  0  0
   -0.4498    0.6369    0.3742 C   0  0  0  0  0  0  0  0  0  0  0  0
   -1.8086    0.4080    0.1632 C   0  0  0  0  0  0  0  0  0  0  0  0
   -2.2260   -0.5307   -0.7830 C   0  0  0  0  0  0  0  0  0  0  0  0
   -1.6093   -1.9662   -2.2711 H   0  0  0  0  0  0  0  0  0  0  0  0
    0.8242   -1.5518   -1.9247 H   0  0  0  0  0  0  0  0  0  0  0  0
   -0.0986    1.3643    1.0974 H   0  0  0  0  0  0  0  0  0  0  0  0
   -2.5393    0.9639    0.7419 H   0  0  0  0  0  0  0  0  0  0  0  0
    1.8587    0.1371   -0.1554 N   0  0  0  0  0  0  0  0  0  0  0  0
    2.7016    0.7426   -0.7105 N   0  0  0  0  0  0  0  0  0  0  0  0
    2.0769    1.7731   -2.3751 Cl  0  0  0  0  0  0  0  0  0  0  0  0
   -3.2856   -0.7108   -0.9361 H   0  0  0  0  0  0  0  0  0  0  0  0
  1  2  2  0  0  0  0
  1  6  1  0  0  0  0
  2  3  1  0  0  0  0
  3 11  1  0  0  0  0
  3  4  2  0  0  0  0
  4  9  1  0  0  0  0
  5  4  1  0  0  0  0
  5 10  1  0  0  0  0
  6  5  2  0  0  0  0
  7  1  1  0  0  0  0
  8  2  1  0  0  0  0
 12 11  1  0  0  0  0
 13 12  1  0  0  0  0
 14  6  1  0  0  0  0
M  RAD  2  11   2  12   2
M  END
