Coordinates from ORCA-job Ph-N2-X-Cl-B3LYPG-6-31G_dp-scan-d09-49-n400
 OpenBabel08281821073D

 14 13  0  0  0  0  0  0  0  0999 V2000
   -1.4278   -1.5790   -1.2552 C   0  0  0  0  0  0  0  0  0  0  0  0
   -0.0627   -1.3732   -1.4206 C   0  0  0  0  0  0  0  0  0  0  0  0
    0.4739   -0.1756   -0.9354 C   0  0  0  0  0  0  0  0  0  0  0  0
   -0.2759    0.8191   -0.2989 C   0  0  0  0  0  0  0  0  0  0  0  0
   -1.6413    0.5835   -0.1487 C   0  0  0  0  0  0  0  0  0  0  0  0
   -2.2104   -0.6035   -0.6217 C   0  0  0  0  0  0  0  0  0  0  0  0
   -1.8846   -2.4945   -1.6163 H   0  0  0  0  0  0  0  0  0  0  0  0
    0.5757   -2.1048   -1.9041 H   0  0  0  0  0  0  0  0  0  0  0  0
    0.3140    1.7160    0.0289 H   0  0  0  0  0  0  0  0  0  0  0  0
   -2.2649    1.3272    0.3385 H   0  0  0  0  0  0  0  0  0  0  0  0
    1.8586    0.0562   -1.0913 N   0  0  0  0  0  0  0  0  0  0  0  0
    2.6547    0.8662   -0.8457 N   0  0  0  0  0  0  0  0  0  0  0  0
    1.8749    2.6781    0.2081 Cl  0  0  0  0  0  0  0  0  0  0  0  0
   -3.2757   -0.7756   -0.4965 H   0  0  0  0  0  0  0  0  0  0  0  0
  1  6  1  0  0  0  0
  2  1  2  0  0  0  0
  2  3  1  0  0  0  0
  3  4  2  0  0  0  0
  4  5  1  0  0  0  0
  4  9  1  0  0  0  0
  5 10  1  0  0  0  0
  6 14  1  0  0  0  0
  6  5  2  0  0  0  0
  7  1  1  0  0  0  0
  8  2  1  0  0  0  0
 11  3  1  0  0  0  0
 11 12  2  0  0  0  0
M  RAD  2  12   2  13   2
M  END
