Coordinates from ORCA-job Ph-N2-X-Cl-B3LYPG-6-31G_dp-scan-d09-49-n400
 OpenBabel08281821073D

 14 13  0  0  0  0  0  0  0  0999 V2000
   -1.4255   -1.5789   -1.2554 C   0  0  0  0  0  0  0  0  0  0  0  0
   -0.0616   -1.3585   -1.4135 C   0  0  0  0  0  0  0  0  0  0  0  0
    0.4712   -0.1590   -0.9269 C   0  0  0  0  0  0  0  0  0  0  0  0
   -0.2985    0.8244   -0.2925 C   0  0  0  0  0  0  0  0  0  0  0  0
   -1.6618    0.5776   -0.1479 C   0  0  0  0  0  0  0  0  0  0  0  0
   -2.2200   -0.6131   -0.6245 C   0  0  0  0  0  0  0  0  0  0  0  0
   -1.8707   -2.4984   -1.6205 H   0  0  0  0  0  0  0  0  0  0  0  0
    0.5850   -2.0838   -1.8956 H   0  0  0  0  0  0  0  0  0  0  0  0
    0.2462    1.7223    0.0449 H   0  0  0  0  0  0  0  0  0  0  0  0
   -2.2914    1.3165    0.3381 H   0  0  0  0  0  0  0  0  0  0  0  0
    1.8552    0.0580   -1.0901 N   0  0  0  0  0  0  0  0  0  0  0  0
    2.6725    0.8546   -0.8548 N   0  0  0  0  0  0  0  0  0  0  0  0
    1.9925    2.6721    0.1833 Cl  0  0  0  0  0  0  0  0  0  0  0  0
   -3.2843   -0.7937   -0.5035 H   0  0  0  0  0  0  0  0  0  0  0  0
  1  6  1  0  0  0  0
  2  1  2  0  0  0  0
  2  3  1  0  0  0  0
  3  4  2  0  0  0  0
  4  5  1  0  0  0  0
  4  9  1  0  0  0  0
  5 10  1  0  0  0  0
  6 14  1  0  0  0  0
  6  5  2  0  0  0  0
  7  1  1  0  0  0  0
  8  2  1  0  0  0  0
 11  3  1  0  0  0  0
 11 12  2  0  0  0  0
M  RAD  2  12   2  13   2
M  END
