Coordinates from ORCA-job Ph-N2-X-Cl-B3LYPG-6-31G_dp-scan-d09-49-n400
 OpenBabel08281821073D

 14 14  0  0  0  0  0  0  0  0999 V2000
   -1.3089   -1.2852   -1.5140 C   0  0  0  0  0  0  0  0  0  0  0  0
    0.0602   -1.0883   -1.3413 C   0  0  0  0  0  0  0  0  0  0  0  0
    0.4794   -0.1087   -0.4402 C   0  0  0  0  0  0  0  0  0  0  0  0
   -0.4192    0.6449    0.3157 C   0  0  0  0  0  0  0  0  0  0  0  0
   -1.7838    0.4303    0.1269 C   0  0  0  0  0  0  0  0  0  0  0  0
   -2.2292   -0.5304   -0.7837 C   0  0  0  0  0  0  0  0  0  0  0  0
   -1.6542   -2.0318   -2.2226 H   0  0  0  0  0  0  0  0  0  0  0  0
    0.7897   -1.6645   -1.8990 H   0  0  0  0  0  0  0  0  0  0  0  0
   -0.0554    1.3858    1.0193 H   0  0  0  0  0  0  0  0  0  0  0  0
   -2.4978    1.0182    0.6947 H   0  0  0  0  0  0  0  0  0  0  0  0
    1.8773    0.0685   -0.2229 N   0  0  0  0  0  0  0  0  0  0  0  0
    2.7023    0.7627   -0.6922 N   0  0  0  0  0  0  0  0  0  0  0  0
    2.0421    2.0315   -2.1773 Cl  0  0  0  0  0  0  0  0  0  0  0  0
   -3.2937   -0.6929   -0.9222 H   0  0  0  0  0  0  0  0  0  0  0  0
  1  2  2  0  0  0  0
  1  6  1  0  0  0  0
  2  3  1  0  0  0  0
  3 11  1  0  0  0  0
  3  4  2  0  0  0  0
  4  9  1  0  0  0  0
  5  4  1  0  0  0  0
  5 10  1  0  0  0  0
  6  5  2  0  0  0  0
  7  1  1  0  0  0  0
  8  2  1  0  0  0  0
 12 11  2  0  0  0  0
 13 12  1  0  0  0  0
 14  6  1  0  0  0  0
M  END
