Coordinates from ORCA-job Ph-N2-X-Cl-B3LYPG-6-31G_dp-scan-d09-49-n400
 OpenBabel08281821073D

 14 13  0  0  0  0  0  0  0  0999 V2000
   -1.4249   -1.6081   -1.2688 C   0  0  0  0  0  0  0  0  0  0  0  0
   -0.0700   -1.4141   -1.4394 C   0  0  0  0  0  0  0  0  0  0  0  0
    0.4390   -0.1906   -0.9382 C   0  0  0  0  0  0  0  0  0  0  0  0
   -0.2490    0.8494   -0.2927 C   0  0  0  0  0  0  0  0  0  0  0  0
   -1.6245    0.5691   -0.1616 C   0  0  0  0  0  0  0  0  0  0  0  0
   -2.1972   -0.6124   -0.6285 C   0  0  0  0  0  0  0  0  0  0  0  0
   -1.8929   -2.5199   -1.6241 H   0  0  0  0  0  0  0  0  0  0  0  0
    0.5670   -2.1482   -1.9231 H   0  0  0  0  0  0  0  0  0  0  0  0
    0.5558    2.0499    0.1498 H   0  0  0  0  0  0  0  0  0  0  0  0
   -2.2640    1.3037    0.3237 H   0  0  0  0  0  0  0  0  0  0  0  0
    1.7988    0.0481   -1.0857 N   0  0  0  0  0  0  0  0  0  0  0  0
    2.8768    0.3289   -1.1578 N   0  0  0  0  0  0  0  0  0  0  0  0
    1.4576    3.0674    0.4887 Cl  0  0  0  0  0  0  0  0  0  0  0  0
   -3.2638   -0.7831   -0.5010 H   0  0  0  0  0  0  0  0  0  0  0  0
  1  6  1  0  0  0  0
  2  1  2  0  0  0  0
  2  3  1  0  0  0  0
  3  4  2  0  0  0  0
  4  5  1  0  0  0  0
  5 10  1  0  0  0  0
  6 14  1  0  0  0  0
  6  5  2  0  0  0  0
  7  1  1  0  0  0  0
  8  2  1  0  0  0  0
  9 13  1  0  0  0  0
 11  3  1  0  0  0  0
 12 11  1  0  0  0  0
M  RAD  3   4   2  11   2  12   3
M  END
