Coordinates from ORCA-job Ph-N2-X-Cl-B3LYPG-6-31G_dp-scan-d09-49-n400
 OpenBabel08281821073D

 14 13  0  0  0  0  0  0  0  0999 V2000
   -1.4275   -1.6145   -1.2712 C   0  0  0  0  0  0  0  0  0  0  0  0
   -0.0730   -1.4214   -1.4423 C   0  0  0  0  0  0  0  0  0  0  0  0
    0.4359   -0.1968   -0.9411 C   0  0  0  0  0  0  0  0  0  0  0  0
   -0.2471    0.8465   -0.2952 C   0  0  0  0  0  0  0  0  0  0  0  0
   -1.6240    0.5637   -0.1648 C   0  0  0  0  0  0  0  0  0  0  0  0
   -2.1983   -0.6170   -0.6306 C   0  0  0  0  0  0  0  0  0  0  0  0
   -1.8968   -2.5260   -1.6257 H   0  0  0  0  0  0  0  0  0  0  0  0
    0.5635   -2.1560   -1.9260 H   0  0  0  0  0  0  0  0  0  0  0  0
    0.5833    2.0999    0.1696 H   0  0  0  0  0  0  0  0  0  0  0  0
   -2.2647    1.2978    0.3203 H   0  0  0  0  0  0  0  0  0  0  0  0
    1.7961    0.0377   -1.0909 N   0  0  0  0  0  0  0  0  0  0  0  0
    2.8772    0.3059   -1.1697 N   0  0  0  0  0  0  0  0  0  0  0  0
    1.4491    3.1068    0.5112 Cl  0  0  0  0  0  0  0  0  0  0  0  0
   -3.2651   -0.7867   -0.5024 H   0  0  0  0  0  0  0  0  0  0  0  0
  1  6  1  0  0  0  0
  2  1  2  0  0  0  0
  2  3  1  0  0  0  0
  3  4  2  0  0  0  0
  4  5  1  0  0  0  0
  5 10  1  0  0  0  0
  6 14  1  0  0  0  0
  6  5  2  0  0  0  0
  7  1  1  0  0  0  0
  8  2  1  0  0  0  0
  9 13  1  0  0  0  0
 11  3  1  0  0  0  0
 12 11  1  0  0  0  0
M  RAD  3   4   2  11   2  12   3
M  END
