Coordinates from ORCA-job Ph-N2-X-Cl-B3LYPG-6-31G_dp-scan-d09-49-n400
 OpenBabel08281821073D

 14 14  0  0  0  0  0  0  0  0999 V2000
   -1.2546   -1.1475   -1.5665 C   0  0  0  0  0  0  0  0  0  0  0  0
    0.0936   -0.8474   -1.3836 C   0  0  0  0  0  0  0  0  0  0  0  0
    0.4352    0.0495   -0.3666 C   0  0  0  0  0  0  0  0  0  0  0  0
   -0.5212    0.6335    0.4641 C   0  0  0  0  0  0  0  0  0  0  0  0
   -1.8659    0.3449    0.2454 C   0  0  0  0  0  0  0  0  0  0  0  0
   -2.2307   -0.5517   -0.7626 C   0  0  0  0  0  0  0  0  0  0  0  0
   -1.5432   -1.8435   -2.3480 H   0  0  0  0  0  0  0  0  0  0  0  0
    0.8626   -1.2844   -2.0076 H   0  0  0  0  0  0  0  0  0  0  0  0
   -0.1934    1.3231    1.2326 H   0  0  0  0  0  0  0  0  0  0  0  0
   -2.6245    0.8108    0.8656 H   0  0  0  0  0  0  0  0  0  0  0  0
    1.7940    0.3489   -0.0911 N   0  0  0  0  0  0  0  0  0  0  0  0
    2.7146    0.7259   -0.7199 N   0  0  0  0  0  0  0  0  0  0  0  0
    2.3201    1.1675   -2.6995 Cl  0  0  0  0  0  0  0  0  0  0  0  0
   -3.2781   -0.7895   -0.9210 H   0  0  0  0  0  0  0  0  0  0  0  0
  1  2  2  0  0  0  0
  1  6  1  0  0  0  0
  2  3  1  0  0  0  0
  3 11  1  0  0  0  0
  3  4  2  0  0  0  0
  4  9  1  0  0  0  0
  5  4  1  0  0  0  0
  5 10  1  0  0  0  0
  6  5  2  0  0  0  0
  7  1  1  0  0  0  0
  8  2  1  0  0  0  0
 12 11  2  0  0  0  0
 13 12  1  0  0  0  0
 14  6  1  0  0  0  0
M  END
