Coordinates from ORCA-job Ph-N2-X-Cl-B3LYPG-6-31G_dp-scan-d09-49-n400
 OpenBabel08281821073D

 14 14  0  0  0  0  0  0  0  0999 V2000
   -1.3344   -1.3303   -1.4931 C   0  0  0  0  0  0  0  0  0  0  0  0
    0.0391   -1.1495   -1.3408 C   0  0  0  0  0  0  0  0  0  0  0  0
    0.4859   -0.1375   -0.4896 C   0  0  0  0  0  0  0  0  0  0  0  0
   -0.3928    0.6573    0.2502 C   0  0  0  0  0  0  0  0  0  0  0  0
   -1.7621    0.4496    0.0914 C   0  0  0  0  0  0  0  0  0  0  0  0
   -2.2338   -0.5354   -0.7793 C   0  0  0  0  0  0  0  0  0  0  0  0
   -1.6997   -2.0984   -2.1678 H   0  0  0  0  0  0  0  0  0  0  0  0
    0.7536   -1.7615   -1.8798 H   0  0  0  0  0  0  0  0  0  0  0  0
   -0.0151    1.4132    0.9300 H   0  0  0  0  0  0  0  0  0  0  0  0
   -2.4601    1.0642    0.6508 H   0  0  0  0  0  0  0  0  0  0  0  0
    1.8897    0.0164   -0.3055 N   0  0  0  0  0  0  0  0  0  0  0  0
    2.7064    0.7753   -0.6767 N   0  0  0  0  0  0  0  0  0  0  0  0
    2.0342    2.2640   -1.9515 Cl  0  0  0  0  0  0  0  0  0  0  0  0
   -3.3023   -0.6873   -0.8971 H   0  0  0  0  0  0  0  0  0  0  0  0
  1  2  2  0  0  0  0
  1  6  1  0  0  0  0
  2  3  1  0  0  0  0
  3 11  1  0  0  0  0
  3  4  2  0  0  0  0
  4  9  1  0  0  0  0
  5  4  1  0  0  0  0
  5 10  1  0  0  0  0
  6  5  2  0  0  0  0
  7  1  1  0  0  0  0
  8  2  1  0  0  0  0
 12 11  2  0  0  0  0
 13 12  1  0  0  0  0
 14  6  1  0  0  0  0
M  END
