Coordinates from ORCA-job Ph-N2-X-Cl-B3LYPG-6-31G_dp-scan-d09-49-n400
 OpenBabel08281821073D

 14 14  0  0  0  0  0  0  0  0999 V2000
   -1.3706   -1.3958   -1.4563 C   0  0  0  0  0  0  0  0  0  0  0  0
    0.0069   -1.2226   -1.3469 C   0  0  0  0  0  0  0  0  0  0  0  0
    0.4905   -0.1632   -0.5741 C   0  0  0  0  0  0  0  0  0  0  0  0
   -0.3620    0.6833    0.1428 C   0  0  0  0  0  0  0  0  0  0  0  0
   -1.7361    0.4748    0.0386 C   0  0  0  0  0  0  0  0  0  0  0  0
   -2.2414   -0.5511   -0.7638 C   0  0  0  0  0  0  0  0  0  0  0  0
   -1.7621   -2.1985   -2.0733 H   0  0  0  0  0  0  0  0  0  0  0  0
    0.7025   -1.8760   -1.8616 H   0  0  0  0  0  0  0  0  0  0  0  0
    0.0348    1.4679    0.7762 H   0  0  0  0  0  0  0  0  0  0  0  0
   -2.4129    1.1223    0.5870 H   0  0  0  0  0  0  0  0  0  0  0  0
    1.8982   -0.0334   -0.4544 N   0  0  0  0  0  0  0  0  0  0  0  0
    2.7174    0.7786   -0.6700 N   0  0  0  0  0  0  0  0  0  0  0  0
    2.0578    2.5520   -1.5613 Cl  0  0  0  0  0  0  0  0  0  0  0  0
   -3.3144   -0.6982   -0.8416 H   0  0  0  0  0  0  0  0  0  0  0  0
  1  2  2  0  0  0  0
  1  6  1  0  0  0  0
  2  3  1  0  0  0  0
  3 11  1  0  0  0  0
  3  4  2  0  0  0  0
  4  9  1  0  0  0  0
  5  4  1  0  0  0  0
  5 10  1  0  0  0  0
  6  5  2  0  0  0  0
  7  1  1  0  0  0  0
  8  2  1  0  0  0  0
 12 11  2  0  0  0  0
 13 12  1  0  0  0  0
 14  6  1  0  0  0  0
M  END
