Coordinates from ORCA-job Ph-N2-X-Cl-B3LYPG-6-31G_dp-scan-d09-49-n400
 OpenBabel08281821073D

 14 14  0  0  0  0  0  0  0  0999 V2000
   -1.4163   -1.5034   -1.3695 C   0  0  0  0  0  0  0  0  0  0  0  0
   -0.0404   -1.2995   -1.3684 C   0  0  0  0  0  0  0  0  0  0  0  0
    0.4788   -0.1613   -0.7371 C   0  0  0  0  0  0  0  0  0  0  0  0
   -0.3450    0.7511   -0.0623 C   0  0  0  0  0  0  0  0  0  0  0  0
   -1.7177    0.5129   -0.0546 C   0  0  0  0  0  0  0  0  0  0  0  0
   -2.2538   -0.5986   -0.7108 C   0  0  0  0  0  0  0  0  0  0  0  0
   -1.8329   -2.3713   -1.8702 H   0  0  0  0  0  0  0  0  0  0  0  0
    0.6372   -1.9934   -1.8538 H   0  0  0  0  0  0  0  0  0  0  0  0
    0.0781    1.6092    0.4414 H   0  0  0  0  0  0  0  0  0  0  0  0
   -2.3716    1.2054    0.4657 H   0  0  0  0  0  0  0  0  0  0  0  0
    1.8829   -0.0325   -0.7660 N   0  0  0  0  0  0  0  0  0  0  0  0
    2.7415    0.7626   -0.7483 N   0  0  0  0  0  0  0  0  0  0  0  0
    2.1951    2.8235   -0.7240 Cl  0  0  0  0  0  0  0  0  0  0  0  0
   -3.3270   -0.7649   -0.7009 H   0  0  0  0  0  0  0  0  0  0  0  0
  1  2  2  0  0  0  0
  1  6  1  0  0  0  0
  2  3  1  0  0  0  0
  3  4  2  0  0  0  0
  4  5  1  0  0  0  0
  4  9  1  0  0  0  0
  5 10  1  0  0  0  0
  6 14  1  0  0  0  0
  6  5  2  0  0  0  0
  7  1  1  0  0  0  0
  8  2  1  0  0  0  0
 11 12  2  0  0  0  0
 11  3  1  0  0  0  0
 12 13  1  0  0  0  0
M  END
