Coordinates from ORCA-job Ph-N2-X-Cl-B3LYPG-6-31G_dp-scan-d09-49-n400
 OpenBabel08281821073D

 14 14  0  0  0  0  0  0  0  0999 V2000
   -1.3012   -1.2715   -1.5200 C   0  0  0  0  0  0  0  0  0  0  0  0
    0.0663   -1.0682   -1.3424 C   0  0  0  0  0  0  0  0  0  0  0  0
    0.4770   -0.0985   -0.4269 C   0  0  0  0  0  0  0  0  0  0  0  0
   -0.4278    0.6420    0.3340 C   0  0  0  0  0  0  0  0  0  0  0  0
   -1.7907    0.4241    0.1377 C   0  0  0  0  0  0  0  0  0  0  0  0
   -2.2280   -0.5299   -0.7841 C   0  0  0  0  0  0  0  0  0  0  0  0
   -1.6405   -2.0118   -2.2380 H   0  0  0  0  0  0  0  0  0  0  0  0
    0.8005   -1.6324   -1.9060 H   0  0  0  0  0  0  0  0  0  0  0  0
   -0.0677    1.3790    1.0434 H   0  0  0  0  0  0  0  0  0  0  0  0
   -2.5098    1.0031    0.7082 H   0  0  0  0  0  0  0  0  0  0  0  0
    1.8725    0.0871   -0.2005 N   0  0  0  0  0  0  0  0  0  0  0  0
    2.7014    0.7574   -0.6975 N   0  0  0  0  0  0  0  0  0  0  0  0
    2.0479    1.9562   -2.2391 Cl  0  0  0  0  0  0  0  0  0  0  0  0
   -3.2911   -0.6967   -0.9277 H   0  0  0  0  0  0  0  0  0  0  0  0
  1  2  2  0  0  0  0
  1  6  1  0  0  0  0
  2  3  1  0  0  0  0
  3 11  1  0  0  0  0
  3  4  2  0  0  0  0
  4  9  1  0  0  0  0
  5  4  1  0  0  0  0
  5 10  1  0  0  0  0
  6  5  2  0  0  0  0
  7  1  1  0  0  0  0
  8  2  1  0  0  0  0
 12 11  2  0  0  0  0
 13 12  1  0  0  0  0
 14  6  1  0  0  0  0
M  END
