Coordinates from ORCA-job Ph-N2-X-Cl-B3LYPG-6-31G_dp-scan-d09-49-n400
 OpenBabel08281821073D

 14 13  0  0  0  0  0  0  0  0999 V2000
   -1.4411   -1.6422   -1.2818 C   0  0  0  0  0  0  0  0  0  0  0  0
   -0.0877   -1.4574   -1.4572 C   0  0  0  0  0  0  0  0  0  0  0  0
    0.4270   -0.2313   -0.9575 C   0  0  0  0  0  0  0  0  0  0  0  0
   -0.2343    0.8268   -0.3092 C   0  0  0  0  0  0  0  0  0  0  0  0
   -1.6166    0.5405   -0.1786 C   0  0  0  0  0  0  0  0  0  0  0  0
   -2.2017   -0.6358   -0.6392 C   0  0  0  0  0  0  0  0  0  0  0  0
   -1.9188   -2.5510   -1.6326 H   0  0  0  0  0  0  0  0  0  0  0  0
    0.5436   -2.1966   -1.9416 H   0  0  0  0  0  0  0  0  0  0  0  0
    0.6894    2.3176    0.2588 H   0  0  0  0  0  0  0  0  0  0  0  0
   -2.2577    1.2752    0.3067 H   0  0  0  0  0  0  0  0  0  0  0  0
    1.7882   -0.0127   -1.1155 N   0  0  0  0  0  0  0  0  0  0  0  0
    2.8763    0.2263   -1.2101 N   0  0  0  0  0  0  0  0  0  0  0  0
    1.4115    3.2783    0.6056 Cl  0  0  0  0  0  0  0  0  0  0  0  0
   -3.2695   -0.7978   -0.5065 H   0  0  0  0  0  0  0  0  0  0  0  0
  1  6  1  0  0  0  0
  2  1  2  0  0  0  0
  2  3  1  0  0  0  0
  3  4  2  0  0  0  0
  4  5  1  0  0  0  0
  5 10  1  0  0  0  0
  6 14  1  0  0  0  0
  6  5  2  0  0  0  0
  7  1  1  0  0  0  0
  8  2  1  0  0  0  0
  9 13  1  0  0  0  0
 11  3  1  0  0  0  0
 12 11  1  0  0  0  0
M  RAD  3   4   2  11   2  12   3
M  END
