Coordinates from ORCA-job Ph-N2-X-Cl-B3LYPG-6-31G_dp-scan-d09-49-n400
 OpenBabel08281821073D

 14 14  0  0  0  0  0  0  0  0999 V2000
   -1.4181   -1.5101   -1.3624 C   0  0  0  0  0  0  0  0  0  0  0  0
   -0.0430   -1.3016   -1.3702 C   0  0  0  0  0  0  0  0  0  0  0  0
    0.4765   -0.1580   -0.7483 C   0  0  0  0  0  0  0  0  0  0  0  0
   -0.3471    0.7573   -0.0765 C   0  0  0  0  0  0  0  0  0  0  0  0
   -1.7189    0.5149   -0.0608 C   0  0  0  0  0  0  0  0  0  0  0  0
   -2.2549   -0.6031   -0.7059 C   0  0  0  0  0  0  0  0  0  0  0  0
   -1.8345   -2.3828   -1.8548 H   0  0  0  0  0  0  0  0  0  0  0  0
    0.6344   -1.9964   -1.8545 H   0  0  0  0  0  0  0  0  0  0  0  0
    0.0761    1.6207    0.4178 H   0  0  0  0  0  0  0  0  0  0  0  0
   -2.3726    1.2094    0.4573 H   0  0  0  0  0  0  0  0  0  0  0  0
    1.8797   -0.0273   -0.7885 N   0  0  0  0  0  0  0  0  0  0  0  0
    2.7435    0.7615   -0.7577 N   0  0  0  0  0  0  0  0  0  0  0  0
    2.2153    2.8281   -0.6648 Cl  0  0  0  0  0  0  0  0  0  0  0  0
   -3.3275   -0.7726   -0.6893 H   0  0  0  0  0  0  0  0  0  0  0  0
  1  6  1  0  0  0  0
  2  1  2  0  0  0  0
  2  3  1  0  0  0  0
  3  4  2  0  0  0  0
  4  5  1  0  0  0  0
  4  9  1  0  0  0  0
  5 10  1  0  0  0  0
  6 14  1  0  0  0  0
  6  5  2  0  0  0  0
  7  1  1  0  0  0  0
  8  2  1  0  0  0  0
 11 12  2  0  0  0  0
 11  3  1  0  0  0  0
 12 13  1  0  0  0  0
M  END
