Coordinates from ORCA-job Ph-N2-X-Cl-B3LYPG-6-31G_dp-scan-d09-49-n400
 OpenBabel08281821073D

 14 14  0  0  0  0  0  0  0  0999 V2000
   -1.4116   -1.4883   -1.3844 C   0  0  0  0  0  0  0  0  0  0  0  0
   -0.0345   -1.2923   -1.3642 C   0  0  0  0  0  0  0  0  0  0  0  0
    0.4822   -0.1655   -0.7117 C   0  0  0  0  0  0  0  0  0  0  0  0
   -0.3443    0.7389   -0.0303 C   0  0  0  0  0  0  0  0  0  0  0  0
   -1.7182    0.5073   -0.0405 C   0  0  0  0  0  0  0  0  0  0  0  0
   -2.2524   -0.5903   -0.7210 C   0  0  0  0  0  0  0  0  0  0  0  0
   -1.8265   -2.3462   -1.9036 H   0  0  0  0  0  0  0  0  0  0  0  0
    0.6446   -1.9826   -1.8524 H   0  0  0  0  0  0  0  0  0  0  0  0
    0.0759    1.5852    0.4955 H   0  0  0  0  0  0  0  0  0  0  0  0
   -2.3741    1.1940    0.4848 H   0  0  0  0  0  0  0  0  0  0  0  0
    1.8879   -0.0404   -0.7176 N   0  0  0  0  0  0  0  0  0  0  0  0
    2.7388    0.7640   -0.7305 N   0  0  0  0  0  0  0  0  0  0  0  0
    2.1675    2.8077   -0.8570 Cl  0  0  0  0  0  0  0  0  0  0  0  0
   -3.3264   -0.7515   -0.7257 H   0  0  0  0  0  0  0  0  0  0  0  0
  1  2  2  0  0  0  0
  1  6  1  0  0  0  0
  2  3  1  0  0  0  0
  3  4  2  0  0  0  0
  4  9  1  0  0  0  0
  5  4  1  0  0  0  0
  5 10  1  0  0  0  0
  6  5  2  0  0  0  0
  7  1  1  0  0  0  0
  8  2  1  0  0  0  0
 11  3  1  0  0  0  0
 12 11  2  0  0  0  0
 13 12  1  0  0  0  0
 14  6  1  0  0  0  0
M  END
