Coordinates from ORCA-job Ph-N2-X-Cl-B3LYPG-6-31G_dp-scan-d09-49-n400
 OpenBabel08281821073D

 14 14  0  0  0  0  0  0  0  0999 V2000
   -1.4227   -1.5799   -1.2558 C   0  0  0  0  0  0  0  0  0  0  0  0
   -0.0610   -1.3409   -1.4050 C   0  0  0  0  0  0  0  0  0  0  0  0
    0.4648   -0.1379   -0.9161 C   0  0  0  0  0  0  0  0  0  0  0  0
   -0.3269    0.8321   -0.2844 C   0  0  0  0  0  0  0  0  0  0  0  0
   -1.6876    0.5690   -0.1477 C   0  0  0  0  0  0  0  0  0  0  0  0
   -2.2322   -0.6262   -0.6281 C   0  0  0  0  0  0  0  0  0  0  0  0
   -1.8533   -2.5046   -1.6256 H   0  0  0  0  0  0  0  0  0  0  0  0
    0.5962   -2.0578   -1.8850 H   0  0  0  0  0  0  0  0  0  0  0  0
    0.1658    1.7393    0.0660 H   0  0  0  0  0  0  0  0  0  0  0  0
   -2.3259    1.3014    0.3364 H   0  0  0  0  0  0  0  0  0  0  0  0
    1.8488    0.0624   -1.0880 N   0  0  0  0  0  0  0  0  0  0  0  0
    2.6975    0.8340   -0.8698 N   0  0  0  0  0  0  0  0  0  0  0  0
    2.1401    2.6668    0.1566 Cl  0  0  0  0  0  0  0  0  0  0  0  0
   -3.2950   -0.8177   -0.5124 H   0  0  0  0  0  0  0  0  0  0  0  0
  1  6  1  0  0  0  0
  2  1  2  0  0  0  0
  2  3  1  0  0  0  0
  3  4  2  0  0  0  0
  4  5  1  0  0  0  0
  4  9  1  0  0  0  0
  5 10  1  0  0  0  0
  6 14  1  0  0  0  0
  6  5  2  0  0  0  0
  7  1  1  0  0  0  0
  8  2  1  0  0  0  0
 11  3  1  0  0  0  0
 11 12  2  0  0  0  0
 12 13  1  0  0  0  0
M  END
