Coordinates from ORCA-job Ph-N2-X-Cl-B3LYPG-6-31G_dp-scan-d09-49-n400
 OpenBabel08281821073D

 14 14  0  0  0  0  0  0  0  0999 V2000
   -1.4080   -1.4779   -1.3941 C   0  0  0  0  0  0  0  0  0  0  0  0
   -0.0301   -1.2876   -1.3617 C   0  0  0  0  0  0  0  0  0  0  0  0
    0.4850   -0.1688   -0.6951 C   0  0  0  0  0  0  0  0  0  0  0  0
   -0.3427    0.7307   -0.0097 C   0  0  0  0  0  0  0  0  0  0  0  0
   -1.7174    0.5043   -0.0316 C   0  0  0  0  0  0  0  0  0  0  0  0
   -2.2506   -0.5839   -0.7276 C   0  0  0  0  0  0  0  0  0  0  0  0
   -1.8220   -2.3288   -1.9252 H   0  0  0  0  0  0  0  0  0  0  0  0
    0.6498   -1.9757   -1.8520 H   0  0  0  0  0  0  0  0  0  0  0  0
    0.0765    1.5691    0.5298 H   0  0  0  0  0  0  0  0  0  0  0  0
   -2.3744    1.1878    0.4967 H   0  0  0  0  0  0  0  0  0  0  0  0
    1.8915   -0.0451   -0.6849 N   0  0  0  0  0  0  0  0  0  0  0  0
    2.7353    0.7666   -0.7187 N   0  0  0  0  0  0  0  0  0  0  0  0
    2.1409    2.7905   -0.9429 Cl  0  0  0  0  0  0  0  0  0  0  0  0
   -3.3251   -0.7413   -0.7418 H   0  0  0  0  0  0  0  0  0  0  0  0
  1  2  2  0  0  0  0
  1  6  1  0  0  0  0
  2  3  1  0  0  0  0
  3 11  1  0  0  0  0
  3  4  2  0  0  0  0
  4  9  1  0  0  0  0
  5  4  1  0  0  0  0
  5 10  1  0  0  0  0
  6  5  2  0  0  0  0
  7  1  1  0  0  0  0
  8  2  1  0  0  0  0
 12 11  2  0  0  0  0
 13 12  1  0  0  0  0
 14  6  1  0  0  0  0
M  END
