Coordinates from ORCA-job Ph-N2-X-Cl-B3LYPG-6-31G_dp-scan-d09-49-n400
 OpenBabel08281821073D

 14 14  0  0  0  0  0  0  0  0999 V2000
   -1.3926   -1.4409   -1.4248 C   0  0  0  0  0  0  0  0  0  0  0  0
   -0.0137   -1.2638   -1.3533 C   0  0  0  0  0  0  0  0  0  0  0  0
    0.4905   -0.1722   -0.6381 C   0  0  0  0  0  0  0  0  0  0  0  0
   -0.3461    0.7060    0.0616 C   0  0  0  0  0  0  0  0  0  0  0  0
   -1.7217    0.4921    0.0001 C   0  0  0  0  0  0  0  0  0  0  0  0
   -2.2457   -0.5657   -0.7475 C   0  0  0  0  0  0  0  0  0  0  0  0
   -1.7991   -2.2690   -1.9965 H   0  0  0  0  0  0  0  0  0  0  0  0
    0.6715   -1.9397   -1.8529 H   0  0  0  0  0  0  0  0  0  0  0  0
    0.0646    1.5177    0.6486 H   0  0  0  0  0  0  0  0  0  0  0  0
   -2.3859    1.1611    0.5378 H   0  0  0  0  0  0  0  0  0  0  0  0
    1.8987   -0.0492   -0.5756 N   0  0  0  0  0  0  0  0  0  0  0  0
    2.7255    0.7746   -0.6893 N   0  0  0  0  0  0  0  0  0  0  0  0
    2.0831    2.7036   -1.2357 Cl  0  0  0  0  0  0  0  0  0  0  0  0
   -3.3204   -0.7145   -0.7932 H   0  0  0  0  0  0  0  0  0  0  0  0
  1  2  2  0  0  0  0
  1  6  1  0  0  0  0
  2  3  1  0  0  0  0
  3 11  1  0  0  0  0
  3  4  2  0  0  0  0
  4  9  1  0  0  0  0
  5  4  1  0  0  0  0
  5 10  1  0  0  0  0
  6  5  2  0  0  0  0
  7  1  1  0  0  0  0
  8  2  1  0  0  0  0
 12 11  2  0  0  0  0
 13 12  1  0  0  0  0
 14  6  1  0  0  0  0
M  END
