Coordinates from ORCA-job Ph-N2-X-Cl-B3LYPG-6-31G_dp-scan-d09-49-n400
 OpenBabel08281821073D

 14 13  0  0  0  0  0  0  0  0999 V2000
   -1.4247   -1.5792   -1.2554 C   0  0  0  0  0  0  0  0  0  0  0  0
   -0.0614   -1.3531   -1.4109 C   0  0  0  0  0  0  0  0  0  0  0  0
    0.4692   -0.1524   -0.9236 C   0  0  0  0  0  0  0  0  0  0  0  0
   -0.3076    0.8267   -0.2900 C   0  0  0  0  0  0  0  0  0  0  0  0
   -1.6700    0.5749   -0.1478 C   0  0  0  0  0  0  0  0  0  0  0  0
   -2.2239   -0.6172   -0.6256 C   0  0  0  0  0  0  0  0  0  0  0  0
   -1.8654   -2.5004   -1.6219 H   0  0  0  0  0  0  0  0  0  0  0  0
    0.5884   -2.0758   -1.8923 H   0  0  0  0  0  0  0  0  0  0  0  0
    0.2210    1.7270    0.0510 H   0  0  0  0  0  0  0  0  0  0  0  0
   -2.3024    1.3118    0.3375 H   0  0  0  0  0  0  0  0  0  0  0  0
    1.8533    0.0594   -1.0896 N   0  0  0  0  0  0  0  0  0  0  0  0
    2.6802    0.8487   -0.8593 N   0  0  0  0  0  0  0  0  0  0  0  0
    2.0398    2.6709    0.1754 Cl  0  0  0  0  0  0  0  0  0  0  0  0
   -3.2877   -0.8013   -0.5063 H   0  0  0  0  0  0  0  0  0  0  0  0
  1  6  1  0  0  0  0
  2  1  2  0  0  0  0
  2  3  1  0  0  0  0
  3  4  2  0  0  0  0
  4  5  1  0  0  0  0
  4  9  1  0  0  0  0
  5 10  1  0  0  0  0
  6 14  1  0  0  0  0
  6  5  2  0  0  0  0
  7  1  1  0  0  0  0
  8  2  1  0  0  0  0
 11  3  1  0  0  0  0
 11 12  2  0  0  0  0
M  RAD  2  12   2  13   2
M  END
