Coordinates from ORCA-job Ph-N2-X-Cl-B3LYPG-6-31G_dp-scan-d09-49-n400
 OpenBabel08281821073D

 14 14  0  0  0  0  0  0  0  0999 V2000
   -1.3282   -1.3193   -1.4985 C   0  0  0  0  0  0  0  0  0  0  0  0
    0.0443   -1.1353   -1.3405 C   0  0  0  0  0  0  0  0  0  0  0  0
    0.4846   -0.1311   -0.4769 C   0  0  0  0  0  0  0  0  0  0  0  0
   -0.3989    0.6540    0.2668 C   0  0  0  0  0  0  0  0  0  0  0  0
   -1.7671    0.4450    0.1001 C   0  0  0  0  0  0  0  0  0  0  0  0
   -2.2326   -0.5338   -0.7808 C   0  0  0  0  0  0  0  0  0  0  0  0
   -1.6886   -2.0820   -2.1818 H   0  0  0  0  0  0  0  0  0  0  0  0
    0.7624   -1.7390   -1.8839 H   0  0  0  0  0  0  0  0  0  0  0  0
   -0.0251    1.4058    0.9533 H   0  0  0  0  0  0  0  0  0  0  0  0
   -2.4690    1.0533    0.6615 H   0  0  0  0  0  0  0  0  0  0  0  0
    1.8871    0.0278   -0.2844 N   0  0  0  0  0  0  0  0  0  0  0  0
    2.7053    0.7730   -0.6797 N   0  0  0  0  0  0  0  0  0  0  0  0
    2.0346    2.2092   -2.0099 Cl  0  0  0  0  0  0  0  0  0  0  0  0
   -3.3002   -0.6877   -0.9042 H   0  0  0  0  0  0  0  0  0  0  0  0
  1  2  2  0  0  0  0
  1  6  1  0  0  0  0
  2  3  1  0  0  0  0
  3 11  1  0  0  0  0
  3  4  2  0  0  0  0
  4  9  1  0  0  0  0
  5  4  1  0  0  0  0
  5 10  1  0  0  0  0
  6  5  2  0  0  0  0
  7  1  1  0  0  0  0
  8  2  1  0  0  0  0
 12 11  2  0  0  0  0
 13 12  1  0  0  0  0
 14  6  1  0  0  0  0
M  END
