Coordinates from ORCA-job Ph-N2-X-Cl-B3LYPG-6-31G_dp-scan-d09-49-n400
 OpenBabel08281821073D

 14 14  0  0  0  0  0  0  0  0999 V2000
   -1.4119   -1.4890   -1.3837 C   0  0  0  0  0  0  0  0  0  0  0  0
   -0.0347   -1.2932   -1.3645 C   0  0  0  0  0  0  0  0  0  0  0  0
    0.4825   -0.1660   -0.7131 C   0  0  0  0  0  0  0  0  0  0  0  0
   -0.3433    0.7392   -0.0322 C   0  0  0  0  0  0  0  0  0  0  0  0
   -1.7173    0.5080   -0.0414 C   0  0  0  0  0  0  0  0  0  0  0  0
   -2.2521   -0.5901   -0.7206 C   0  0  0  0  0  0  0  0  0  0  0  0
   -1.8273   -2.3472   -1.9019 H   0  0  0  0  0  0  0  0  0  0  0  0
    0.6441   -1.9840   -1.8524 H   0  0  0  0  0  0  0  0  0  0  0  0
    0.0777    1.5861    0.4921 H   0  0  0  0  0  0  0  0  0  0  0  0
   -2.3728    1.1954    0.4835 H   0  0  0  0  0  0  0  0  0  0  0  0
    1.8881   -0.0406   -0.7197 N   0  0  0  0  0  0  0  0  0  0  0  0
    2.7382    0.7645   -0.7309 N   0  0  0  0  0  0  0  0  0  0  0  0
    2.1636    2.8080   -0.8492 Cl  0  0  0  0  0  0  0  0  0  0  0  0
   -3.3261   -0.7512   -0.7246 H   0  0  0  0  0  0  0  0  0  0  0  0
  1  2  2  0  0  0  0
  1  6  1  0  0  0  0
  2  3  1  0  0  0  0
  3  4  2  0  0  0  0
  4  9  1  0  0  0  0
  5  4  1  0  0  0  0
  5 10  1  0  0  0  0
  6  5  2  0  0  0  0
  7  1  1  0  0  0  0
  8  2  1  0  0  0  0
 11  3  1  0  0  0  0
 12 11  2  0  0  0  0
 13 12  1  0  0  0  0
 14  6  1  0  0  0  0
M  END
