Coordinates from ORCA-job Ph-N2-X-Cl-B3LYPG-6-31G_dp-scan-d09-49-n400
 OpenBabel08281821073D

 14 14  0  0  0  0  0  0  0  0999 V2000
   -1.2920   -1.2543   -1.5270 C   0  0  0  0  0  0  0  0  0  0  0  0
    0.0735   -1.0415   -1.3444 C   0  0  0  0  0  0  0  0  0  0  0  0
    0.4734   -0.0838   -0.4115 C   0  0  0  0  0  0  0  0  0  0  0  0
   -0.4393    0.6390    0.3561 C   0  0  0  0  0  0  0  0  0  0  0  0
   -1.8001    0.4158    0.1513 C   0  0  0  0  0  0  0  0  0  0  0  0
   -2.2267   -0.5299   -0.7839 C   0  0  0  0  0  0  0  0  0  0  0  0
   -1.6236   -1.9871   -2.2563 H   0  0  0  0  0  0  0  0  0  0  0  0
    0.8136   -1.5900   -1.9157 H   0  0  0  0  0  0  0  0  0  0  0  0
   -0.0839    1.3710    1.0728 H   0  0  0  0  0  0  0  0  0  0  0  0
   -2.5254    0.9828    0.7259 H   0  0  0  0  0  0  0  0  0  0  0  0
    1.8655    0.1127   -0.1750 N   0  0  0  0  0  0  0  0  0  0  0  0
    2.7011    0.7497   -0.7046 N   0  0  0  0  0  0  0  0  0  0  0  0
    2.0605    1.8591   -2.3135 Cl  0  0  0  0  0  0  0  0  0  0  0  0
   -3.2880   -0.7034   -0.9330 H   0  0  0  0  0  0  0  0  0  0  0  0
  1  2  2  0  0  0  0
  1  6  1  0  0  0  0
  2  3  1  0  0  0  0
  3 11  1  0  0  0  0
  3  4  2  0  0  0  0
  4  9  1  0  0  0  0
  5  4  1  0  0  0  0
  5 10  1  0  0  0  0
  6  5  2  0  0  0  0
  7  1  1  0  0  0  0
  8  2  1  0  0  0  0
 12 11  2  0  0  0  0
 13 12  1  0  0  0  0
 14  6  1  0  0  0  0
M  END
