Coordinates from ORCA-job Ph-N2-X-Cl-B3LYPG-6-31G_dp-scan-d09-49-n400
 OpenBabel08281821073D

 14 14  0  0  0  0  0  0  0  0999 V2000
   -1.2547   -1.1489   -1.5660 C   0  0  0  0  0  0  0  0  0  0  0  0
    0.0938   -0.8504   -1.3826 C   0  0  0  0  0  0  0  0  0  0  0  0
    0.4360    0.0471   -0.3664 C   0  0  0  0  0  0  0  0  0  0  0  0
   -0.5200    0.6334    0.4631 C   0  0  0  0  0  0  0  0  0  0  0  0
   -1.8649    0.3461    0.2439 C   0  0  0  0  0  0  0  0  0  0  0  0
   -2.2304   -0.5511   -0.7632 C   0  0  0  0  0  0  0  0  0  0  0  0
   -1.5437   -1.8453   -2.3470 H   0  0  0  0  0  0  0  0  0  0  0  0
    0.8626   -1.2891   -2.0058 H   0  0  0  0  0  0  0  0  0  0  0  0
   -0.1918    1.3238    1.2306 H   0  0  0  0  0  0  0  0  0  0  0  0
   -2.6232    0.8139    0.8631 H   0  0  0  0  0  0  0  0  0  0  0  0
    1.7954    0.3445   -0.0910 N   0  0  0  0  0  0  0  0  0  0  0  0
    2.7143    0.7254   -0.7202 N   0  0  0  0  0  0  0  0  0  0  0  0
    2.3133    1.1783   -2.6954 Cl  0  0  0  0  0  0  0  0  0  0  0  0
   -3.2780   -0.7877   -0.9219 H   0  0  0  0  0  0  0  0  0  0  0  0
  1  2  2  0  0  0  0
  1  6  1  0  0  0  0
  2  3  1  0  0  0  0
  3 11  1  0  0  0  0
  3  4  2  0  0  0  0
  4  9  1  0  0  0  0
  5  4  1  0  0  0  0
  5 10  1  0  0  0  0
  6  5  2  0  0  0  0
  7  1  1  0  0  0  0
  8  2  1  0  0  0  0
 12 11  2  0  0  0  0
 13 12  1  0  0  0  0
 14  6  1  0  0  0  0
M  END
