Coordinates from ORCA-job Ph-N2-X-Cl-B3LYPG-6-31G_dp-scan-d09-49-n400
 OpenBabel08281821073D

 14 14  0  0  0  0  0  0  0  0999 V2000
   -1.4210   -1.5808   -1.2571 C   0  0  0  0  0  0  0  0  0  0  0  0
   -0.0610   -1.3289   -1.3992 C   0  0  0  0  0  0  0  0  0  0  0  0
    0.4586   -0.1235   -0.9072 C   0  0  0  0  0  0  0  0  0  0  0  0
   -0.3474    0.8373   -0.2773 C   0  0  0  0  0  0  0  0  0  0  0  0
   -1.7063    0.5621   -0.1470 C   0  0  0  0  0  0  0  0  0  0  0  0
   -2.2409   -0.6358   -0.6313 C   0  0  0  0  0  0  0  0  0  0  0  0
   -1.8412   -2.5085   -1.6310 H   0  0  0  0  0  0  0  0  0  0  0  0
    0.6039   -2.0396   -1.8777 H   0  0  0  0  0  0  0  0  0  0  0  0
    0.1127    1.7519    0.0828 H   0  0  0  0  0  0  0  0  0  0  0  0
   -2.3515    1.2891    0.3360 H   0  0  0  0  0  0  0  0  0  0  0  0
    1.8430    0.0667   -1.0832 N   0  0  0  0  0  0  0  0  0  0  0  0
    2.7152    0.8170   -0.8802 N   0  0  0  0  0  0  0  0  0  0  0  0
    2.2473    2.6683    0.1335 Cl  0  0  0  0  0  0  0  0  0  0  0  0
   -3.3027   -0.8353   -0.5199 H   0  0  0  0  0  0  0  0  0  0  0  0
  1  6  1  0  0  0  0
  2  1  2  0  0  0  0
  2  3  1  0  0  0  0
  3  4  2  0  0  0  0
  4  5  1  0  0  0  0
  4  9  1  0  0  0  0
  5 10  1  0  0  0  0
  6 14  1  0  0  0  0
  6  5  2  0  0  0  0
  7  1  1  0  0  0  0
  8  2  1  0  0  0  0
 11  3  1  0  0  0  0
 11 12  2  0  0  0  0
 12 13  1  0  0  0  0
M  END
