Coordinates from ORCA-job Ph-N2-X-Cl-B3LYPG-6-31G_dp-scan-d09-49-n400
 OpenBabel08281821073D

 14 13  0  0  0  0  0  0  0  0999 V2000
   -1.4636   -1.6801   -1.2956 C   0  0  0  0  0  0  0  0  0  0  0  0
   -0.1098   -1.5218   -1.4848 C   0  0  0  0  0  0  0  0  0  0  0  0
    0.4293   -0.3008   -0.9932 C   0  0  0  0  0  0  0  0  0  0  0  0
   -0.1923    0.7805   -0.3419 C   0  0  0  0  0  0  0  0  0  0  0  0
   -1.5829    0.5115   -0.2007 C   0  0  0  0  0  0  0  0  0  0  0  0
   -2.1965   -0.6536   -0.6490 C   0  0  0  0  0  0  0  0  0  0  0  0
   -1.9639   -2.5804   -1.6372 H   0  0  0  0  0  0  0  0  0  0  0  0
    0.5033   -2.2747   -1.9722 H   0  0  0  0  0  0  0  0  0  0  0  0
    0.8038    2.6876    0.4242 H   0  0  0  0  0  0  0  0  0  0  0  0
   -2.2110    1.2572    0.2869 H   0  0  0  0  0  0  0  0  0  0  0  0
    1.7930   -0.1100   -1.1658 N   0  0  0  0  0  0  0  0  0  0  0  0
    2.8867    0.1016   -1.2756 N   0  0  0  0  0  0  0  0  0  0  0  0
    1.2792    3.5171    0.7505 Cl  0  0  0  0  0  0  0  0  0  0  0  0
   -3.2664   -0.7939   -0.5045 H   0  0  0  0  0  0  0  0  0  0  0  0
  1  6  1  0  0  0  0
  2  1  2  0  0  0  0
  2  3  1  0  0  0  0
  3  4  2  0  0  0  0
  4  5  1  0  0  0  0
  5 10  1  0  0  0  0
  6 14  1  0  0  0  0
  6  5  2  0  0  0  0
  7  1  1  0  0  0  0
  8  2  1  0  0  0  0
  9 13  1  0  0  0  0
 11  3  1  0  0  0  0
 12 11  1  0  0  0  0
M  RAD  3   4   2  11   2  12   3
M  END
