Coordinates from ORCA-job Ph-N2-X-Cl-B3LYPG-6-31G_dp-scan-d09-49-n400
 OpenBabel08281821073D

 14 13  0  0  0  0  0  0  0  0999 V2000
   -1.4665   -1.6886   -1.2973 C   0  0  0  0  0  0  0  0  0  0  0  0
   -0.1129   -1.5295   -1.4869 C   0  0  0  0  0  0  0  0  0  0  0  0
    0.4244   -0.3067   -0.9970 C   0  0  0  0  0  0  0  0  0  0  0  0
   -0.1964    0.7758   -0.3474 C   0  0  0  0  0  0  0  0  0  0  0  0
   -1.5873    0.5051   -0.2061 C   0  0  0  0  0  0  0  0  0  0  0  0
   -2.2000   -0.6613   -0.6522 C   0  0  0  0  0  0  0  0  0  0  0  0
   -1.9661   -2.5898   -1.6373 H   0  0  0  0  0  0  0  0  0  0  0  0
    0.5009   -2.2826   -1.9732 H   0  0  0  0  0  0  0  0  0  0  0  0
    0.8419    2.7626    0.4576 H   0  0  0  0  0  0  0  0  0  0  0  0
   -2.2169    1.2507    0.2800 H   0  0  0  0  0  0  0  0  0  0  0  0
    1.7881   -0.1143   -1.1696 N   0  0  0  0  0  0  0  0  0  0  0  0
    2.8816    0.0991   -1.2794 N   0  0  0  0  0  0  0  0  0  0  0  0
    1.2875    3.5219    0.7575 Cl  0  0  0  0  0  0  0  0  0  0  0  0
   -3.2698   -0.8024   -0.5075 H   0  0  0  0  0  0  0  0  0  0  0  0
  1  6  1  0  0  0  0
  2  1  2  0  0  0  0
  2  3  1  0  0  0  0
  3  4  2  0  0  0  0
  4  5  1  0  0  0  0
  5 10  1  0  0  0  0
  6 14  1  0  0  0  0
  6  5  2  0  0  0  0
  7  1  1  0  0  0  0
  8  2  1  0  0  0  0
  9 13  1  0  0  0  0
 11  3  1  0  0  0  0
 12 11  1  0  0  0  0
M  RAD  3   4   2  11   2  12   3
M  END
