Coordinates from ORCA-job Ph-N2-X-Cl-B3LYPG-6-31G_dp-scan-d09-49-n400
 OpenBabel08281821073D

 14 14  0  0  0  0  0  0  0  0999 V2000
   -1.4042   -1.4680   -1.4028 C   0  0  0  0  0  0  0  0  0  0  0  0
   -0.0258   -1.2818   -1.3592 C   0  0  0  0  0  0  0  0  0  0  0  0
    0.4867   -0.1704   -0.6793 C   0  0  0  0  0  0  0  0  0  0  0  0
   -0.3431    0.7235    0.0101 C   0  0  0  0  0  0  0  0  0  0  0  0
   -1.7182    0.5009   -0.0229 C   0  0  0  0  0  0  0  0  0  0  0  0
   -2.2494   -0.5787   -0.7335 C   0  0  0  0  0  0  0  0  0  0  0  0
   -1.8165   -2.3127   -1.9452 H   0  0  0  0  0  0  0  0  0  0  0  0
    0.6553   -1.9671   -1.8517 H   0  0  0  0  0  0  0  0  0  0  0  0
    0.0739    1.5543    0.5633 H   0  0  0  0  0  0  0  0  0  0  0  0
   -2.3769    1.1806    0.5081 H   0  0  0  0  0  0  0  0  0  0  0  0
    1.8939   -0.0475   -0.6548 N   0  0  0  0  0  0  0  0  0  0  0  0
    2.7329    0.7685   -0.7097 N   0  0  0  0  0  0  0  0  0  0  0  0
    2.1244    2.7717   -1.0246 Cl  0  0  0  0  0  0  0  0  0  0  0  0
   -3.3241   -0.7333   -0.7566 H   0  0  0  0  0  0  0  0  0  0  0  0
  1  2  2  0  0  0  0
  1  6  1  0  0  0  0
  2  3  1  0  0  0  0
  3 11  1  0  0  0  0
  3  4  2  0  0  0  0
  4  9  1  0  0  0  0
  5  4  1  0  0  0  0
  5 10  1  0  0  0  0
  6  5  2  0  0  0  0
  7  1  1  0  0  0  0
  8  2  1  0  0  0  0
 12 11  2  0  0  0  0
 13 12  1  0  0  0  0
 14  6  1  0  0  0  0
M  END
