Coordinates from ORCA-job Ph-N2-X-Cl-B3LYPG-6-31G_dp-scan-d09-49-n400
 OpenBabel08281821073D

 14 13  0  0  0  0  0  0  0  0999 V2000
   -1.4252   -1.5789   -1.2554 C   0  0  0  0  0  0  0  0  0  0  0  0
   -0.0615   -1.3566   -1.4126 C   0  0  0  0  0  0  0  0  0  0  0  0
    0.4706   -0.1567   -0.9258 C   0  0  0  0  0  0  0  0  0  0  0  0
   -0.3015    0.8251   -0.2917 C   0  0  0  0  0  0  0  0  0  0  0  0
   -1.6645    0.5767   -0.1479 C   0  0  0  0  0  0  0  0  0  0  0  0
   -2.2213   -0.6144   -0.6248 C   0  0  0  0  0  0  0  0  0  0  0  0
   -1.8689   -2.4991   -1.6209 H   0  0  0  0  0  0  0  0  0  0  0  0
    0.5862   -2.0810   -1.8945 H   0  0  0  0  0  0  0  0  0  0  0  0
    0.2375    1.7238    0.0470 H   0  0  0  0  0  0  0  0  0  0  0  0
   -2.2950    1.3150    0.3379 H   0  0  0  0  0  0  0  0  0  0  0  0
    1.8546    0.0583   -1.0900 N   0  0  0  0  0  0  0  0  0  0  0  0
    2.6750    0.8527   -0.8562 N   0  0  0  0  0  0  0  0  0  0  0  0
    2.0082    2.6714    0.1805 Cl  0  0  0  0  0  0  0  0  0  0  0  0
   -3.2855   -0.7962   -0.5044 H   0  0  0  0  0  0  0  0  0  0  0  0
  1  6  1  0  0  0  0
  2  1  2  0  0  0  0
  2  3  1  0  0  0  0
  3  4  2  0  0  0  0
  4  5  1  0  0  0  0
  4  9  1  0  0  0  0
  5 10  1  0  0  0  0
  6 14  1  0  0  0  0
  6  5  2  0  0  0  0
  7  1  1  0  0  0  0
  8  2  1  0  0  0  0
 11  3  1  0  0  0  0
 11 12  2  0  0  0  0
M  RAD  2  12   2  13   2
M  END
