Coordinates from ORCA-job Ph-N2-X-Cl-B3LYPG-6-31G_dp-scan-d09-49-n400
 OpenBabel08281821073D

 14 14  0  0  0  0  0  0  0  0999 V2000
   -1.3643   -1.3838   -1.4638 C   0  0  0  0  0  0  0  0  0  0  0  0
    0.0127   -1.2102   -1.3455 C   0  0  0  0  0  0  0  0  0  0  0  0
    0.4899   -0.1594   -0.5579 C   0  0  0  0  0  0  0  0  0  0  0  0
   -0.3671    0.6779    0.1635 C   0  0  0  0  0  0  0  0  0  0  0  0
   -1.7405    0.4701    0.0487 C   0  0  0  0  0  0  0  0  0  0  0  0
   -2.2401   -0.5478   -0.7673 C   0  0  0  0  0  0  0  0  0  0  0  0
   -1.7513   -2.1799   -2.0921 H   0  0  0  0  0  0  0  0  0  0  0  0
    0.7115   -1.8567   -1.8646 H   0  0  0  0  0  0  0  0  0  0  0  0
    0.0260    1.4564    0.8070 H   0  0  0  0  0  0  0  0  0  0  0  0
   -2.4210    1.1117    0.5994 H   0  0  0  0  0  0  0  0  0  0  0  0
    1.8971   -0.0263   -0.4246 N   0  0  0  0  0  0  0  0  0  0  0  0
    2.7153    0.7789   -0.6681 N   0  0  0  0  0  0  0  0  0  0  0  0
    2.0529    2.5044   -1.6405 Cl  0  0  0  0  0  0  0  0  0  0  0  0
   -3.3125   -0.6952   -0.8529 H   0  0  0  0  0  0  0  0  0  0  0  0
  1  2  2  0  0  0  0
  1  6  1  0  0  0  0
  2  3  1  0  0  0  0
  3 11  1  0  0  0  0
  3  4  2  0  0  0  0
  4  9  1  0  0  0  0
  5  4  1  0  0  0  0
  5 10  1  0  0  0  0
  6  5  2  0  0  0  0
  7  1  1  0  0  0  0
  8  2  1  0  0  0  0
 12 11  2  0  0  0  0
 13 12  1  0  0  0  0
 14  6  1  0  0  0  0
M  END
