Coordinates from ORCA-job Ph-N2-X-Cl-B3LYPG-6-31G_dp-scan-d09-49-n400
 OpenBabel08281821073D

 14 14  0  0  0  0  0  0  0  0999 V2000
   -1.3616   -1.3788   -1.4668 C   0  0  0  0  0  0  0  0  0  0  0  0
    0.0151   -1.2048   -1.3450 C   0  0  0  0  0  0  0  0  0  0  0  0
    0.4896   -0.1576   -0.5511 C   0  0  0  0  0  0  0  0  0  0  0  0
   -0.3694    0.6758    0.1721 C   0  0  0  0  0  0  0  0  0  0  0  0
   -1.7426    0.4680    0.0529 C   0  0  0  0  0  0  0  0  0  0  0  0
   -2.2396   -0.5465   -0.7686 C   0  0  0  0  0  0  0  0  0  0  0  0
   -1.7466   -2.1722   -2.0998 H   0  0  0  0  0  0  0  0  0  0  0  0
    0.7153   -1.8482   -1.8659 H   0  0  0  0  0  0  0  0  0  0  0  0
    0.0221    1.4517    0.8198 H   0  0  0  0  0  0  0  0  0  0  0  0
   -2.4246    1.1071    0.6045 H   0  0  0  0  0  0  0  0  0  0  0  0
    1.8965   -0.0230   -0.4124 N   0  0  0  0  0  0  0  0  0  0  0  0
    2.7146    0.7789   -0.6679 N   0  0  0  0  0  0  0  0  0  0  0  0
    2.0517    2.4837   -1.6730 Cl  0  0  0  0  0  0  0  0  0  0  0  0
   -3.3117   -0.6942   -0.8575 H   0  0  0  0  0  0  0  0  0  0  0  0
  1  2  2  0  0  0  0
  1  6  1  0  0  0  0
  2  3  1  0  0  0  0
  3 11  1  0  0  0  0
  3  4  2  0  0  0  0
  4  9  1  0  0  0  0
  5  4  1  0  0  0  0
  5 10  1  0  0  0  0
  6  5  2  0  0  0  0
  7  1  1  0  0  0  0
  8  2  1  0  0  0  0
 12 11  2  0  0  0  0
 13 12  1  0  0  0  0
 14  6  1  0  0  0  0
M  END
