Coordinates from ORCA-job Ph-N2-X-Cl-B3LYPG-6-31G_dp-scan-d09-49-n400
 OpenBabel08281821073D

 14 14  0  0  0  0  0  0  0  0999 V2000
   -1.3793   -1.4129   -1.4451 C   0  0  0  0  0  0  0  0  0  0  0  0
   -0.0010   -1.2391   -1.3491 C   0  0  0  0  0  0  0  0  0  0  0  0
    0.4909   -0.1675   -0.5977 C   0  0  0  0  0  0  0  0  0  0  0  0
   -0.3554    0.6912    0.1129 C   0  0  0  0  0  0  0  0  0  0  0  0
   -1.7303    0.4813    0.0243 C   0  0  0  0  0  0  0  0  0  0  0  0
   -2.2431   -0.5562   -0.7584 C   0  0  0  0  0  0  0  0  0  0  0  0
   -1.7768   -2.2251   -2.0455 H   0  0  0  0  0  0  0  0  0  0  0  0
    0.6903   -1.9017   -1.8578 H   0  0  0  0  0  0  0  0  0  0  0  0
    0.0465    1.4851    0.7306 H   0  0  0  0  0  0  0  0  0  0  0  0
   -2.4020    1.1371    0.5689 H   0  0  0  0  0  0  0  0  0  0  0  0
    1.8990   -0.0412   -0.4984 N   0  0  0  0  0  0  0  0  0  0  0  0
    2.7205    0.7774   -0.6748 N   0  0  0  0  0  0  0  0  0  0  0  0
    2.0663    2.6149   -1.4441 Cl  0  0  0  0  0  0  0  0  0  0  0  0
   -3.3170   -0.7034   -0.8245 H   0  0  0  0  0  0  0  0  0  0  0  0
  1  2  2  0  0  0  0
  1  6  1  0  0  0  0
  2  3  1  0  0  0  0
  3 11  1  0  0  0  0
  3  4  2  0  0  0  0
  4  9  1  0  0  0  0
  5  4  1  0  0  0  0
  5 10  1  0  0  0  0
  6  5  2  0  0  0  0
  7  1  1  0  0  0  0
  8  2  1  0  0  0  0
 12 11  2  0  0  0  0
 13 12  1  0  0  0  0
 14  6  1  0  0  0  0
M  END
