Coordinates from ORCA-job Ph-N2-X-Cl-B3LYPG-6-31G_dp-scan-d09-49-n400
 OpenBabel08281821073D

 14 13  0  0  0  0  0  0  0  0999 V2000
   -1.4297   -1.5800   -1.2554 C   0  0  0  0  0  0  0  0  0  0  0  0
   -0.0640   -1.3841   -1.4256 C   0  0  0  0  0  0  0  0  0  0  0  0
    0.4741   -0.1873   -0.9409 C   0  0  0  0  0  0  0  0  0  0  0  0
   -0.2599    0.8160   -0.3031 C   0  0  0  0  0  0  0  0  0  0  0  0
   -1.6271    0.5869   -0.1497 C   0  0  0  0  0  0  0  0  0  0  0  0
   -2.2038   -0.5975   -0.6203 C   0  0  0  0  0  0  0  0  0  0  0  0
   -1.8944   -2.4926   -1.6137 H   0  0  0  0  0  0  0  0  0  0  0  0
    0.5690   -2.1199   -1.9101 H   0  0  0  0  0  0  0  0  0  0  0  0
    0.3664    1.7190    0.0218 H   0  0  0  0  0  0  0  0  0  0  0  0
   -2.2470    1.3335    0.3382 H   0  0  0  0  0  0  0  0  0  0  0  0
    1.8599    0.0552   -1.0916 N   0  0  0  0  0  0  0  0  0  0  0  0
    2.6451    0.8699   -0.8426 N   0  0  0  0  0  0  0  0  0  0  0  0
    1.7899    2.6844    0.2264 Cl  0  0  0  0  0  0  0  0  0  0  0  0
   -3.2699   -0.7635   -0.4921 H   0  0  0  0  0  0  0  0  0  0  0  0
  1  6  1  0  0  0  0
  2  1  2  0  0  0  0
  2  3  1  0  0  0  0
  3  4  2  0  0  0  0
  4  5  1  0  0  0  0
  4  9  1  0  0  0  0
  5 10  1  0  0  0  0
  6 14  1  0  0  0  0
  6  5  2  0  0  0  0
  7  1  1  0  0  0  0
  8  2  1  0  0  0  0
 11  3  1  0  0  0  0
 11 12  2  0  0  0  0
M  RAD  2  12   2  13   2
M  END
