Coordinates from ORCA-job Ph-N2-X-Cl-B3LYPG-6-31G_dp-scan-d09-49-n400
 OpenBabel08281821073D

 14 14  0  0  0  0  0  0  0  0999 V2000
   -1.2544   -1.1431   -1.5680 C   0  0  0  0  0  0  0  0  0  0  0  0
    0.0929   -0.8383   -1.3867 C   0  0  0  0  0  0  0  0  0  0  0  0
    0.4328    0.0568   -0.3673 C   0  0  0  0  0  0  0  0  0  0  0  0
   -0.5249    0.6338    0.4673 C   0  0  0  0  0  0  0  0  0  0  0  0
   -1.8687    0.3409    0.2498 C   0  0  0  0  0  0  0  0  0  0  0  0
   -2.2315   -0.5536   -0.7608 C   0  0  0  0  0  0  0  0  0  0  0  0
   -1.5416   -1.8381   -2.3510 H   0  0  0  0  0  0  0  0  0  0  0  0
    0.8625   -1.2706   -2.0132 H   0  0  0  0  0  0  0  0  0  0  0  0
   -0.1983    1.3210    1.2384 H   0  0  0  0  0  0  0  0  0  0  0  0
   -2.6281    0.8015    0.8730 H   0  0  0  0  0  0  0  0  0  0  0  0
    1.7898    0.3620   -0.0915 N   0  0  0  0  0  0  0  0  0  0  0  0
    2.7157    0.7274   -0.7189 N   0  0  0  0  0  0  0  0  0  0  0  0
    2.3408    1.1352   -2.7117 Cl  0  0  0  0  0  0  0  0  0  0  0  0
   -3.2782   -0.7950   -0.9183 H   0  0  0  0  0  0  0  0  0  0  0  0
  1  2  2  0  0  0  0
  1  6  1  0  0  0  0
  2  3  1  0  0  0  0
  3 11  1  0  0  0  0
  3  4  2  0  0  0  0
  4  9  1  0  0  0  0
  5  4  1  0  0  0  0
  5 10  1  0  0  0  0
  6  5  2  0  0  0  0
  7  1  1  0  0  0  0
  8  2  1  0  0  0  0
 12 11  2  0  0  0  0
 13 12  1  0  0  0  0
 14  6  1  0  0  0  0
M  END
