Coordinates from ORCA-job Ph-N2-X-Cl-B3LYPG-6-31G_dp-scan-d09-49-n400
 OpenBabel08281821073D

 14 14  0  0  0  0  0  0  0  0999 V2000
   -1.4236   -1.5414   -1.3251 C   0  0  0  0  0  0  0  0  0  0  0  0
   -0.0534   -1.3114   -1.3795 C   0  0  0  0  0  0  0  0  0  0  0  0
    0.4667   -0.1422   -0.8059 C   0  0  0  0  0  0  0  0  0  0  0  0
   -0.3543    0.7884   -0.1501 C   0  0  0  0  0  0  0  0  0  0  0  0
   -1.7216    0.5283   -0.0932 C   0  0  0  0  0  0  0  0  0  0  0  0
   -2.2564   -0.6222   -0.6801 C   0  0  0  0  0  0  0  0  0  0  0  0
   -1.8396   -2.4370   -1.7747 H   0  0  0  0  0  0  0  0  0  0  0  0
    0.6220   -2.0110   -1.8596 H   0  0  0  0  0  0  0  0  0  0  0  0
    0.0716    1.6773    0.2945 H   0  0  0  0  0  0  0  0  0  0  0  0
   -2.3733    1.2340    0.4120 H   0  0  0  0  0  0  0  0  0  0  0  0
    1.8645    0.0029   -0.8994 N   0  0  0  0  0  0  0  0  0  0  0  0
    2.7457    0.7658   -0.8070 N   0  0  0  0  0  0  0  0  0  0  0  0
    2.2859    2.8146   -0.3613 Cl  0  0  0  0  0  0  0  0  0  0  0  0
   -3.3256   -0.8060   -0.6293 H   0  0  0  0  0  0  0  0  0  0  0  0
  1  6  1  0  0  0  0
  2  1  2  0  0  0  0
  2  3  1  0  0  0  0
  3  4  2  0  0  0  0
  4  5  1  0  0  0  0
  4  9  1  0  0  0  0
  5 10  1  0  0  0  0
  6 14  1  0  0  0  0
  6  5  2  0  0  0  0
  7  1  1  0  0  0  0
  8  2  1  0  0  0  0
 11 12  2  0  0  0  0
 11  3  1  0  0  0  0
 12 13  1  0  0  0  0
M  END
