Coordinates from ORCA-job Ph-N2-X-Cl-B3LYPG-6-31G_dp-scan-d09-49-n400
 OpenBabel08281821073D

 14 14  0  0  0  0  0  0  0  0999 V2000
   -1.3598   -1.3754   -1.4688 C   0  0  0  0  0  0  0  0  0  0  0  0
    0.0167   -1.2011   -1.3446 C   0  0  0  0  0  0  0  0  0  0  0  0
    0.4893   -0.1563   -0.5467 C   0  0  0  0  0  0  0  0  0  0  0  0
   -0.3711    0.6744    0.1778 C   0  0  0  0  0  0  0  0  0  0  0  0
   -1.7440    0.4667    0.0557 C   0  0  0  0  0  0  0  0  0  0  0  0
   -2.2393   -0.5457   -0.7695 C   0  0  0  0  0  0  0  0  0  0  0  0
   -1.7434   -2.1671   -2.1048 H   0  0  0  0  0  0  0  0  0  0  0  0
    0.7179   -1.8425   -1.8668 H   0  0  0  0  0  0  0  0  0  0  0  0
    0.0194    1.4487    0.8282 H   0  0  0  0  0  0  0  0  0  0  0  0
   -2.4271    1.1041    0.6080 H   0  0  0  0  0  0  0  0  0  0  0  0
    1.8961   -0.0206   -0.4045 N   0  0  0  0  0  0  0  0  0  0  0  0
    2.7142    0.7788   -0.6679 N   0  0  0  0  0  0  0  0  0  0  0  0
    2.0512    2.4698   -1.6944 Cl  0  0  0  0  0  0  0  0  0  0  0  0
   -3.3111   -0.6937   -0.8605 H   0  0  0  0  0  0  0  0  0  0  0  0
  1  2  2  0  0  0  0
  1  6  1  0  0  0  0
  2  3  1  0  0  0  0
  3 11  1  0  0  0  0
  3  4  2  0  0  0  0
  4  9  1  0  0  0  0
  5  4  1  0  0  0  0
  5 10  1  0  0  0  0
  6  5  2  0  0  0  0
  7  1  1  0  0  0  0
  8  2  1  0  0  0  0
 12 11  2  0  0  0  0
 13 12  1  0  0  0  0
 14  6  1  0  0  0  0
M  END
