Coordinates from ORCA-job Ph-N2-X-Cl-B3LYPG-6-31G_dp-scan-d09-49-n400
 OpenBabel08281821073D

 14 13  0  0  0  0  0  0  0  0999 V2000
   -1.4251   -1.5792   -1.2552 C   0  0  0  0  0  0  0  0  0  0  0  0
   -0.0616   -1.3558   -1.4123 C   0  0  0  0  0  0  0  0  0  0  0  0
    0.4700   -0.1556   -0.9256 C   0  0  0  0  0  0  0  0  0  0  0  0
   -0.3032    0.8257   -0.2917 C   0  0  0  0  0  0  0  0  0  0  0  0
   -1.6659    0.5763   -0.1480 C   0  0  0  0  0  0  0  0  0  0  0  0
   -2.2220   -0.6152   -0.6248 C   0  0  0  0  0  0  0  0  0  0  0  0
   -1.8680   -2.4997   -1.6207 H   0  0  0  0  0  0  0  0  0  0  0  0
    0.5866   -2.0799   -1.8940 H   0  0  0  0  0  0  0  0  0  0  0  0
    0.2337    1.7250    0.0467 H   0  0  0  0  0  0  0  0  0  0  0  0
   -2.2970    1.3143    0.3375 H   0  0  0  0  0  0  0  0  0  0  0  0
    1.8541    0.0590   -1.0903 N   0  0  0  0  0  0  0  0  0  0  0  0
    2.6762    0.8518   -0.8571 N   0  0  0  0  0  0  0  0  0  0  0  0
    2.0166    2.6710    0.1813 Cl  0  0  0  0  0  0  0  0  0  0  0  0
   -3.2860   -0.7977   -0.5045 H   0  0  0  0  0  0  0  0  0  0  0  0
  1  6  1  0  0  0  0
  2  1  2  0  0  0  0
  2  3  1  0  0  0  0
  3  4  2  0  0  0  0
  4  5  1  0  0  0  0
  4  9  1  0  0  0  0
  5 10  1  0  0  0  0
  6 14  1  0  0  0  0
  6  5  2  0  0  0  0
  7  1  1  0  0  0  0
  8  2  1  0  0  0  0
 11  3  1  0  0  0  0
 11 12  2  0  0  0  0
M  RAD  2  12   2  13   2
M  END
