Coordinates from ORCA-job Ph-N2-X-Cl-B3LYPG-6-31G_dp-scan-d09-49-n400
 OpenBabel08281821073D

 14 13  0  0  0  0  0  0  0  0999 V2000
   -1.4304   -1.5808   -1.2557 C   0  0  0  0  0  0  0  0  0  0  0  0
   -0.0647   -1.3881   -1.4275 C   0  0  0  0  0  0  0  0  0  0  0  0
    0.4734   -0.1913   -0.9428 C   0  0  0  0  0  0  0  0  0  0  0  0
   -0.2543    0.8152   -0.3046 C   0  0  0  0  0  0  0  0  0  0  0  0
   -1.6223    0.5877   -0.1503 C   0  0  0  0  0  0  0  0  0  0  0  0
   -2.2016   -0.5957   -0.6198 C   0  0  0  0  0  0  0  0  0  0  0  0
   -1.8979   -2.4924   -1.6129 H   0  0  0  0  0  0  0  0  0  0  0  0
    0.5666   -2.1253   -1.9123 H   0  0  0  0  0  0  0  0  0  0  0  0
    0.3862    1.7234    0.0203 H   0  0  0  0  0  0  0  0  0  0  0  0
   -2.2412    1.3351    0.3379 H   0  0  0  0  0  0  0  0  0  0  0  0
    1.8599    0.0550   -1.0917 N   0  0  0  0  0  0  0  0  0  0  0  0
    2.6431    0.8689   -0.8427 N   0  0  0  0  0  0  0  0  0  0  0  0
    1.7599    2.6879    0.2338 Cl  0  0  0  0  0  0  0  0  0  0  0  0
   -3.2679   -0.7597   -0.4906 H   0  0  0  0  0  0  0  0  0  0  0  0
  1  6  1  0  0  0  0
  2  1  2  0  0  0  0
  2  3  1  0  0  0  0
  3  4  2  0  0  0  0
  4  5  1  0  0  0  0
  4  9  1  0  0  0  0
  5 10  1  0  0  0  0
  6 14  1  0  0  0  0
  6  5  2  0  0  0  0
  7  1  1  0  0  0  0
  8  2  1  0  0  0  0
 11  3  1  0  0  0  0
 11 12  2  0  0  0  0
M  RAD  2  12   2  13   2
M  END
