Coordinates from ORCA-job Ph-N2-X-Cl-B3LYPG-6-31G_dp-scan-d09-49-n400
 OpenBabel08281821073D

 14 13  0  0  0  0  0  0  0  0999 V2000
   -1.4329   -1.5841   -1.2571 C   0  0  0  0  0  0  0  0  0  0  0  0
   -0.0672   -1.3988   -1.4325 C   0  0  0  0  0  0  0  0  0  0  0  0
    0.4686   -0.2013   -0.9466 C   0  0  0  0  0  0  0  0  0  0  0  0
   -0.2418    0.8139   -0.3075 C   0  0  0  0  0  0  0  0  0  0  0  0
   -1.6120    0.5880   -0.1519 C   0  0  0  0  0  0  0  0  0  0  0  0
   -2.1971   -0.5931   -0.6193 C   0  0  0  0  0  0  0  0  0  0  0  0
   -1.9066   -2.4934   -1.6122 H   0  0  0  0  0  0  0  0  0  0  0  0
    0.5606   -2.1386   -1.9181 H   0  0  0  0  0  0  0  0  0  0  0  0
    0.4395    1.7465    0.0217 H   0  0  0  0  0  0  0  0  0  0  0  0
   -2.2297    1.3366    0.3368 H   0  0  0  0  0  0  0  0  0  0  0  0
    1.8571    0.0549   -1.0907 N   0  0  0  0  0  0  0  0  0  0  0  0
    2.6446    0.8580   -0.8475 N   0  0  0  0  0  0  0  0  0  0  0  0
    1.6895    2.7042    0.2539 Cl  0  0  0  0  0  0  0  0  0  0  0  0
   -3.2640   -0.7527   -0.4877 H   0  0  0  0  0  0  0  0  0  0  0  0
  1  6  1  0  0  0  0
  2  1  2  0  0  0  0
  2  3  1  0  0  0  0
  3  4  2  0  0  0  0
  4  5  1  0  0  0  0
  4  9  1  0  0  0  0
  5 10  1  0  0  0  0
  6 14  1  0  0  0  0
  6  5  2  0  0  0  0
  7  1  1  0  0  0  0
  8  2  1  0  0  0  0
 11  3  1  0  0  0  0
 11 12  2  0  0  0  0
M  RAD  2  12   2  13   2
M  END
