Coordinates from ORCA-job Ph-N2-X-Cl-B3LYPG-6-31G_dp-scan-d09-49-n400
 OpenBabel08281821073D

 14 14  0  0  0  0  0  0  0  0999 V2000
   -1.2549   -1.1519   -1.5649 C   0  0  0  0  0  0  0  0  0  0  0  0
    0.0942   -0.8564   -1.3806 C   0  0  0  0  0  0  0  0  0  0  0  0
    0.4376    0.0422   -0.3661 C   0  0  0  0  0  0  0  0  0  0  0  0
   -0.5175    0.6332    0.4609 C   0  0  0  0  0  0  0  0  0  0  0  0
   -1.8630    0.3487    0.2409 C   0  0  0  0  0  0  0  0  0  0  0  0
   -2.2298   -0.5499   -0.7644 C   0  0  0  0  0  0  0  0  0  0  0  0
   -1.5449   -1.8490   -2.3450 H   0  0  0  0  0  0  0  0  0  0  0  0
    0.8626   -1.2983   -2.0021 H   0  0  0  0  0  0  0  0  0  0  0  0
   -0.1885    1.3252    1.2267 H   0  0  0  0  0  0  0  0  0  0  0  0
   -2.6207    0.8200    0.8582 H   0  0  0  0  0  0  0  0  0  0  0  0
    1.7982    0.3359   -0.0911 N   0  0  0  0  0  0  0  0  0  0  0  0
    2.7135    0.7246   -0.7208 N   0  0  0  0  0  0  0  0  0  0  0  0
    2.3000    1.1997   -2.6868 Cl  0  0  0  0  0  0  0  0  0  0  0  0
   -3.2779   -0.7841   -0.9236 H   0  0  0  0  0  0  0  0  0  0  0  0
  1  2  2  0  0  0  0
  1  6  1  0  0  0  0
  2  3  1  0  0  0  0
  3 11  1  0  0  0  0
  3  4  2  0  0  0  0
  4  9  1  0  0  0  0
  5  4  1  0  0  0  0
  5 10  1  0  0  0  0
  6  5  2  0  0  0  0
  7  1  1  0  0  0  0
  8  2  1  0  0  0  0
 12 11  2  0  0  0  0
 13 12  1  0  0  0  0
 14  6  1  0  0  0  0
M  END
