Coordinates from ORCA-job Ph-N2-X-Cl-B3LYPG-6-31G_dp-scan-d09-49-n400
 OpenBabel08281821073D

 14 13  0  0  0  0  0  0  0  0999 V2000
   -1.4257   -1.6101   -1.2696 C   0  0  0  0  0  0  0  0  0  0  0  0
   -0.0709   -1.4164   -1.4403 C   0  0  0  0  0  0  0  0  0  0  0  0
    0.4379   -0.1925   -0.9391 C   0  0  0  0  0  0  0  0  0  0  0  0
   -0.2484    0.8486   -0.2934 C   0  0  0  0  0  0  0  0  0  0  0  0
   -1.6244    0.5674   -0.1626 C   0  0  0  0  0  0  0  0  0  0  0  0
   -2.1976   -0.6139   -0.6292 C   0  0  0  0  0  0  0  0  0  0  0  0
   -1.8941   -2.5219   -1.6246 H   0  0  0  0  0  0  0  0  0  0  0  0
    0.5659   -2.1506   -1.9240 H   0  0  0  0  0  0  0  0  0  0  0  0
    0.5649    2.0662    0.1562 H   0  0  0  0  0  0  0  0  0  0  0  0
   -2.2644    1.3018    0.3226 H   0  0  0  0  0  0  0  0  0  0  0  0
    1.7979    0.0447   -1.0874 N   0  0  0  0  0  0  0  0  0  0  0  0
    2.8771    0.3209   -1.1620 N   0  0  0  0  0  0  0  0  0  0  0  0
    1.4547    3.0803    0.4961 Cl  0  0  0  0  0  0  0  0  0  0  0  0
   -3.2642   -0.7844   -0.5015 H   0  0  0  0  0  0  0  0  0  0  0  0
  1  6  1  0  0  0  0
  2  1  2  0  0  0  0
  2  3  1  0  0  0  0
  3  4  2  0  0  0  0
  4  5  1  0  0  0  0
  5 10  1  0  0  0  0
  6 14  1  0  0  0  0
  6  5  2  0  0  0  0
  7  1  1  0  0  0  0
  8  2  1  0  0  0  0
  9 13  1  0  0  0  0
 11  3  1  0  0  0  0
 12 11  1  0  0  0  0
M  RAD  3   4   2  11   2  12   3
M  END
