Coordinates from ORCA-job Ph-N2-X-Cl-B3LYPG-6-31G_dp-scan-d09-49-n400
 OpenBabel08281821073D

 14 14  0  0  0  0  0  0  0  0999 V2000
   -1.3776   -1.4096   -1.4474 C   0  0  0  0  0  0  0  0  0  0  0  0
    0.0005   -1.2359   -1.3487 C   0  0  0  0  0  0  0  0  0  0  0  0
    0.4908   -0.1667   -0.5930 C   0  0  0  0  0  0  0  0  0  0  0  0
   -0.3566    0.6896    0.1188 C   0  0  0  0  0  0  0  0  0  0  0  0
   -1.7314    0.4800    0.0271 C   0  0  0  0  0  0  0  0  0  0  0  0
   -2.2428   -0.5551   -0.7595 C   0  0  0  0  0  0  0  0  0  0  0  0
   -1.7740   -2.2198   -2.0510 H   0  0  0  0  0  0  0  0  0  0  0  0
    0.6927   -1.8968   -1.8586 H   0  0  0  0  0  0  0  0  0  0  0  0
    0.0442    1.4816    0.7398 H   0  0  0  0  0  0  0  0  0  0  0  0
   -2.4041    1.1342    0.5725 H   0  0  0  0  0  0  0  0  0  0  0  0
    1.8989   -0.0398   -0.4896 N   0  0  0  0  0  0  0  0  0  0  0  0
    2.7200    0.7776   -0.6737 N   0  0  0  0  0  0  0  0  0  0  0  0
    2.0646    2.6031   -1.4677 Cl  0  0  0  0  0  0  0  0  0  0  0  0
   -3.3165   -0.7023   -0.8279 H   0  0  0  0  0  0  0  0  0  0  0  0
  1  2  2  0  0  0  0
  1  6  1  0  0  0  0
  2  3  1  0  0  0  0
  3 11  1  0  0  0  0
  3  4  2  0  0  0  0
  4  9  1  0  0  0  0
  5  4  1  0  0  0  0
  5 10  1  0  0  0  0
  6  5  2  0  0  0  0
  7  1  1  0  0  0  0
  8  2  1  0  0  0  0
 12 11  2  0  0  0  0
 13 12  1  0  0  0  0
 14  6  1  0  0  0  0
M  END
