Coordinates from ORCA-job Ph-N2-X-Cl-B3LYPG-6-31G_dp-scan-d09-49-n400
 OpenBabel08281821073D

 14 14  0  0  0  0  0  0  0  0999 V2000
   -1.3002   -1.2696   -1.5208 C   0  0  0  0  0  0  0  0  0  0  0  0
    0.0672   -1.0653   -1.3425 C   0  0  0  0  0  0  0  0  0  0  0  0
    0.4766   -0.0969   -0.4250 C   0  0  0  0  0  0  0  0  0  0  0  0
   -0.4291    0.6416    0.3366 C   0  0  0  0  0  0  0  0  0  0  0  0
   -1.7918    0.4232    0.1392 C   0  0  0  0  0  0  0  0  0  0  0  0
   -2.2278   -0.5298   -0.7841 C   0  0  0  0  0  0  0  0  0  0  0  0
   -1.6386   -2.0089   -2.2401 H   0  0  0  0  0  0  0  0  0  0  0  0
    0.8020   -1.6277   -1.9071 H   0  0  0  0  0  0  0  0  0  0  0  0
   -0.0695    1.3780    1.0468 H   0  0  0  0  0  0  0  0  0  0  0  0
   -2.5115    1.0009    0.7102 H   0  0  0  0  0  0  0  0  0  0  0  0
    1.8717    0.0898   -0.1975 N   0  0  0  0  0  0  0  0  0  0  0  0
    2.7013    0.7566   -0.6983 N   0  0  0  0  0  0  0  0  0  0  0  0
    2.0489    1.9454   -2.2477 Cl  0  0  0  0  0  0  0  0  0  0  0  0
   -3.2907   -0.6974   -0.9284 H   0  0  0  0  0  0  0  0  0  0  0  0
  1  2  2  0  0  0  0
  1  6  1  0  0  0  0
  2  3  1  0  0  0  0
  3 11  1  0  0  0  0
  3  4  2  0  0  0  0
  4  9  1  0  0  0  0
  5  4  1  0  0  0  0
  5 10  1  0  0  0  0
  6  5  2  0  0  0  0
  7  1  1  0  0  0  0
  8  2  1  0  0  0  0
 12 11  2  0  0  0  0
 13 12  1  0  0  0  0
 14  6  1  0  0  0  0
M  END
