Coordinates from ORCA-job Ph-N2-X-Cl-B3LYPG-6-31G_dp-scan-d09-49-n400
 OpenBabel08281821073D

 14 14  0  0  0  0  0  0  0  0999 V2000
   -1.4039   -1.4674   -1.4034 C   0  0  0  0  0  0  0  0  0  0  0  0
   -0.0257   -1.2809   -1.3590 C   0  0  0  0  0  0  0  0  0  0  0  0
    0.4864   -0.1699   -0.6781 C   0  0  0  0  0  0  0  0  0  0  0  0
   -0.3441    0.7232    0.0118 C   0  0  0  0  0  0  0  0  0  0  0  0
   -1.7191    0.5002   -0.0220 C   0  0  0  0  0  0  0  0  0  0  0  0
   -2.2498   -0.5789   -0.7338 C   0  0  0  0  0  0  0  0  0  0  0  0
   -1.8158   -2.3118   -1.9466 H   0  0  0  0  0  0  0  0  0  0  0  0
    0.6558   -1.9656   -1.8517 H   0  0  0  0  0  0  0  0  0  0  0  0
    0.0720    1.5535    0.5663 H   0  0  0  0  0  0  0  0  0  0  0  0
   -2.3783    1.1793    0.5093 H   0  0  0  0  0  0  0  0  0  0  0  0
    1.8936   -0.0470   -0.6530 N   0  0  0  0  0  0  0  0  0  0  0  0
    2.7335    0.7681   -0.7095 N   0  0  0  0  0  0  0  0  0  0  0  0
    2.1286    2.7710   -1.0316 Cl  0  0  0  0  0  0  0  0  0  0  0  0
   -3.3244   -0.7339   -0.7575 H   0  0  0  0  0  0  0  0  0  0  0  0
  1  2  2  0  0  0  0
  1  6  1  0  0  0  0
  2  3  1  0  0  0  0
  3 11  1  0  0  0  0
  3  4  2  0  0  0  0
  4  9  1  0  0  0  0
  5  4  1  0  0  0  0
  5 10  1  0  0  0  0
  6  5  2  0  0  0  0
  7  1  1  0  0  0  0
  8  2  1  0  0  0  0
 12 11  2  0  0  0  0
 13 12  1  0  0  0  0
 14  6  1  0  0  0  0
M  END
