Coordinates from ORCA-job Ph-N2-X-Cl-B3LYPG-6-31G_dp-scan-d09-49-n400
 OpenBabel08281821073D

 14 13  0  0  0  0  0  0  0  0999 V2000
   -1.4295   -1.5799   -1.2554 C   0  0  0  0  0  0  0  0  0  0  0  0
   -0.0638   -1.3831   -1.4251 C   0  0  0  0  0  0  0  0  0  0  0  0
    0.4742   -0.1862   -0.9404 C   0  0  0  0  0  0  0  0  0  0  0  0
   -0.2613    0.8162   -0.3027 C   0  0  0  0  0  0  0  0  0  0  0  0
   -1.6284    0.5867   -0.1496 C   0  0  0  0  0  0  0  0  0  0  0  0
   -2.2043   -0.5979   -0.6204 C   0  0  0  0  0  0  0  0  0  0  0  0
   -1.8935   -2.4927   -1.6140 H   0  0  0  0  0  0  0  0  0  0  0  0
    0.5696   -2.1185   -1.9096 H   0  0  0  0  0  0  0  0  0  0  0  0
    0.3616    1.7182    0.0223 H   0  0  0  0  0  0  0  0  0  0  0  0
   -2.2486    1.3330    0.3383 H   0  0  0  0  0  0  0  0  0  0  0  0
    1.8599    0.0553   -1.0916 N   0  0  0  0  0  0  0  0  0  0  0  0
    2.6457    0.8699   -0.8427 N   0  0  0  0  0  0  0  0  0  0  0  0
    1.7975    2.6836    0.2246 Cl  0  0  0  0  0  0  0  0  0  0  0  0
   -3.2704   -0.7645   -0.4925 H   0  0  0  0  0  0  0  0  0  0  0  0
  1  6  1  0  0  0  0
  2  1  2  0  0  0  0
  2  3  1  0  0  0  0
  3  4  2  0  0  0  0
  4  5  1  0  0  0  0
  4  9  1  0  0  0  0
  5 10  1  0  0  0  0
  6 14  1  0  0  0  0
  6  5  2  0  0  0  0
  7  1  1  0  0  0  0
  8  2  1  0  0  0  0
 11  3  1  0  0  0  0
 11 12  2  0  0  0  0
M  RAD  2  12   2  13   2
M  END
