Coordinates from ORCA-job Ph-N2-X-Cl-B3LYPG-6-31G_dp-scan-d09-49-n400
 OpenBabel08281821073D

 14 14  0  0  0  0  0  0  0  0999 V2000
   -1.2545   -1.1314   -1.5723 C   0  0  0  0  0  0  0  0  0  0  0  0
    0.0904   -0.8138   -1.3954 C   0  0  0  0  0  0  0  0  0  0  0  0
    0.4260    0.0766   -0.3698 C   0  0  0  0  0  0  0  0  0  0  0  0
   -0.5345    0.6348    0.4752 C   0  0  0  0  0  0  0  0  0  0  0  0
   -1.8761    0.3299    0.2620 C   0  0  0  0  0  0  0  0  0  0  0  0
   -2.2339   -0.5590   -0.7554 C   0  0  0  0  0  0  0  0  0  0  0  0
   -1.5383   -1.8234   -2.3591 H   0  0  0  0  0  0  0  0  0  0  0  0
    0.8613   -1.2328   -2.0290 H   0  0  0  0  0  0  0  0  0  0  0  0
   -0.2110    1.3157    1.2533 H   0  0  0  0  0  0  0  0  0  0  0  0
   -2.6373    0.7757    0.8936 H   0  0  0  0  0  0  0  0  0  0  0  0
    1.7779    0.3983   -0.0941 N   0  0  0  0  0  0  0  0  0  0  0  0
    2.7184    0.7333   -0.7158 N   0  0  0  0  0  0  0  0  0  0  0  0
    2.3992    1.0464   -2.7417 Cl  0  0  0  0  0  0  0  0  0  0  0  0
   -3.2788   -0.8103   -0.9102 H   0  0  0  0  0  0  0  0  0  0  0  0
  1  2  2  0  0  0  0
  1  6  1  0  0  0  0
  2  3  1  0  0  0  0
  3 11  1  0  0  0  0
  3  4  2  0  0  0  0
  4  9  1  0  0  0  0
  5  4  1  0  0  0  0
  5 10  1  0  0  0  0
  6  5  2  0  0  0  0
  7  1  1  0  0  0  0
  8  2  1  0  0  0  0
 12 11  2  0  0  0  0
 13 12  1  0  0  0  0
 14  6  1  0  0  0  0
M  END
