Coordinates from ORCA-job Ph-N2-X-Cl-B3LYPG-6-31G_dp-scan-d09-49-n400
 OpenBabel08281821073D

 14 13  0  0  0  0  0  0  0  0999 V2000
   -1.4667   -1.6895   -1.2973 C   0  0  0  0  0  0  0  0  0  0  0  0
   -0.1131   -1.5302   -1.4870 C   0  0  0  0  0  0  0  0  0  0  0  0
    0.4239   -0.3071   -0.9975 C   0  0  0  0  0  0  0  0  0  0  0  0
   -0.1970    0.7756   -0.3483 C   0  0  0  0  0  0  0  0  0  0  0  0
   -1.5879    0.5046   -0.2070 C   0  0  0  0  0  0  0  0  0  0  0  0
   -2.2004   -0.6620   -0.6526 C   0  0  0  0  0  0  0  0  0  0  0  0
   -1.9662   -2.5910   -1.6369 H   0  0  0  0  0  0  0  0  0  0  0  0
    0.5008   -2.2834   -1.9731 H   0  0  0  0  0  0  0  0  0  0  0  0
    0.8464    2.7706    0.4616 H   0  0  0  0  0  0  0  0  0  0  0  0
   -2.2176    1.2503    0.2789 H   0  0  0  0  0  0  0  0  0  0  0  0
    1.7876   -0.1145   -1.1702 N   0  0  0  0  0  0  0  0  0  0  0  0
    2.8811    0.0987   -1.2802 N   0  0  0  0  0  0  0  0  0  0  0  0
    1.2879    3.5212    0.7585 Cl  0  0  0  0  0  0  0  0  0  0  0  0
   -3.2701   -0.8033   -0.5077 H   0  0  0  0  0  0  0  0  0  0  0  0
  1  6  1  0  0  0  0
  2  1  2  0  0  0  0
  2  3  1  0  0  0  0
  3  4  2  0  0  0  0
  4  5  1  0  0  0  0
  5 10  1  0  0  0  0
  6 14  1  0  0  0  0
  6  5  2  0  0  0  0
  7  1  1  0  0  0  0
  8  2  1  0  0  0  0
  9 13  1  0  0  0  0
 11  3  1  0  0  0  0
 12 11  1  0  0  0  0
M  RAD  3   4   2  11   2  12   3
M  END
