Coordinates from ORCA-job Ph-N2-X-Cl-B3LYPG-6-31G_dp-scan-d09-49-n400
 OpenBabel08281821073D

 14 14  0  0  0  0  0  0  0  0999 V2000
   -1.2799   -1.2303   -1.5364 C   0  0  0  0  0  0  0  0  0  0  0  0
    0.0822   -1.0021   -1.3487 C   0  0  0  0  0  0  0  0  0  0  0  0
    0.4673   -0.0603   -0.3932 C   0  0  0  0  0  0  0  0  0  0  0  0
   -0.4564    0.6358    0.3850 C   0  0  0  0  0  0  0  0  0  0  0  0
   -1.8139    0.4030    0.1707 C   0  0  0  0  0  0  0  0  0  0  0  0
   -2.2256   -0.5315   -0.7823 C   0  0  0  0  0  0  0  0  0  0  0  0
   -1.6008   -1.9534   -2.2799 H   0  0  0  0  0  0  0  0  0  0  0  0
    0.8304   -1.5274   -1.9307 H   0  0  0  0  0  0  0  0  0  0  0  0
   -0.1078    1.3604    1.1122 H   0  0  0  0  0  0  0  0  0  0  0  0
   -2.5479    0.9516    0.7521 H   0  0  0  0  0  0  0  0  0  0  0  0
    1.8541    0.1533   -0.1444 N   0  0  0  0  0  0  0  0  0  0  0  0
    2.7021    0.7383   -0.7137 N   0  0  0  0  0  0  0  0  0  0  0  0
    2.0891    1.7185   -2.4120 Cl  0  0  0  0  0  0  0  0  0  0  0  0
   -3.2842   -0.7159   -0.9375 H   0  0  0  0  0  0  0  0  0  0  0  0
  1  2  2  0  0  0  0
  1  6  1  0  0  0  0
  2  3  1  0  0  0  0
  3 11  1  0  0  0  0
  3  4  2  0  0  0  0
  4  9  1  0  0  0  0
  5  4  1  0  0  0  0
  5 10  1  0  0  0  0
  6  5  2  0  0  0  0
  7  1  1  0  0  0  0
  8  2  1  0  0  0  0
 12 11  1  0  0  0  0
 13 12  1  0  0  0  0
 14  6  1  0  0  0  0
M  RAD  2  11   2  12   2
M  END
