Coordinates from ORCA-job Ph-N2-X-Cl-B3LYPG-6-31G_dp-scan-d09-49-n400
 OpenBabel08281821073D

 14 14  0  0  0  0  0  0  0  0999 V2000
   -1.4205   -1.5809   -1.2584 C   0  0  0  0  0  0  0  0  0  0  0  0
   -0.0610   -1.3240   -1.3967 C   0  0  0  0  0  0  0  0  0  0  0  0
    0.4559   -0.1179   -0.9025 C   0  0  0  0  0  0  0  0  0  0  0  0
   -0.3558    0.8388   -0.2730 C   0  0  0  0  0  0  0  0  0  0  0  0
   -1.7141    0.5588   -0.1461 C   0  0  0  0  0  0  0  0  0  0  0  0
   -2.2447   -0.6397   -0.6331 C   0  0  0  0  0  0  0  0  0  0  0  0
   -1.8364   -2.5095   -1.6348 H   0  0  0  0  0  0  0  0  0  0  0  0
    0.6071   -2.0320   -1.8747 H   0  0  0  0  0  0  0  0  0  0  0  0
    0.0912    1.7563    0.0917 H   0  0  0  0  0  0  0  0  0  0  0  0
   -2.3621    1.2834    0.3367 H   0  0  0  0  0  0  0  0  0  0  0  0
    1.8405    0.0683   -1.0792 N   0  0  0  0  0  0  0  0  0  0  0  0
    2.7227    0.8091   -0.8839 N   0  0  0  0  0  0  0  0  0  0  0  0
    2.2920    2.6716    0.1193 Cl  0  0  0  0  0  0  0  0  0  0  0  0
   -3.3061   -0.8422   -0.5241 H   0  0  0  0  0  0  0  0  0  0  0  0
  1  6  1  0  0  0  0
  2  1  2  0  0  0  0
  2  3  1  0  0  0  0
  3  4  2  0  0  0  0
  4  5  1  0  0  0  0
  4  9  1  0  0  0  0
  5 10  1  0  0  0  0
  6 14  1  0  0  0  0
  6  5  2  0  0  0  0
  7  1  1  0  0  0  0
  8  2  1  0  0  0  0
 11  3  1  0  0  0  0
 11 12  2  0  0  0  0
 12 13  1  0  0  0  0
M  END
