Coordinates from ORCA-job Ph-N2-X-Cl-B3LYPG-6-31G_dp-scan-d09-49-n400
 OpenBabel08281821073D

 14 14  0  0  0  0  0  0  0  0999 V2000
   -1.4219   -1.5289   -1.3412 C   0  0  0  0  0  0  0  0  0  0  0  0
   -0.0495   -1.3072   -1.3753 C   0  0  0  0  0  0  0  0  0  0  0  0
    0.4704   -0.1485   -0.7812 C   0  0  0  0  0  0  0  0  0  0  0  0
   -0.3522    0.7753   -0.1185 C   0  0  0  0  0  0  0  0  0  0  0  0
   -1.7215    0.5220   -0.0794 C   0  0  0  0  0  0  0  0  0  0  0  0
   -2.2567   -0.6150   -0.6914 C   0  0  0  0  0  0  0  0  0  0  0  0
   -1.8379   -2.4151   -1.8091 H   0  0  0  0  0  0  0  0  0  0  0  0
    0.6271   -2.0046   -1.8570 H   0  0  0  0  0  0  0  0  0  0  0  0
    0.0715    1.6536    0.3482 H   0  0  0  0  0  0  0  0  0  0  0  0
   -2.3742    1.2227    0.4314 H   0  0  0  0  0  0  0  0  0  0  0  0
    1.8707   -0.0104   -0.8531 N   0  0  0  0  0  0  0  0  0  0  0  0
    2.7466    0.7617   -0.7867 N   0  0  0  0  0  0  0  0  0  0  0  0
    2.2637    2.8275   -0.4904 Cl  0  0  0  0  0  0  0  0  0  0  0  0
   -3.3274   -0.7931   -0.6553 H   0  0  0  0  0  0  0  0  0  0  0  0
  1  6  1  0  0  0  0
  2  1  2  0  0  0  0
  2  3  1  0  0  0  0
  3  4  2  0  0  0  0
  4  5  1  0  0  0  0
  4  9  1  0  0  0  0
  5 10  1  0  0  0  0
  6 14  1  0  0  0  0
  6  5  2  0  0  0  0
  7  1  1  0  0  0  0
  8  2  1  0  0  0  0
 11 12  2  0  0  0  0
 11  3  1  0  0  0  0
 12 13  1  0  0  0  0
M  END
