Coordinates from ORCA-job Ph-N2-X-Cl-B3LYPG-6-31G_dp-scan-d09-49-n400
 OpenBabel08281821073D

 14 14  0  0  0  0  0  0  0  0999 V2000
   -1.3406   -1.3411   -1.4876 C   0  0  0  0  0  0  0  0  0  0  0  0
    0.0336   -1.1618   -1.3415 C   0  0  0  0  0  0  0  0  0  0  0  0
    0.4866   -0.1417   -0.5027 C   0  0  0  0  0  0  0  0  0  0  0  0
   -0.3879    0.6612    0.2338 C   0  0  0  0  0  0  0  0  0  0  0  0
   -1.7581    0.4533    0.0833 C   0  0  0  0  0  0  0  0  0  0  0  0
   -2.2354   -0.5379   -0.7771 C   0  0  0  0  0  0  0  0  0  0  0  0
   -1.7101   -2.1148   -2.1534 H   0  0  0  0  0  0  0  0  0  0  0  0
    0.7450   -1.7808   -1.8765 H   0  0  0  0  0  0  0  0  0  0  0  0
   -0.0081    1.4207    0.9083 H   0  0  0  0  0  0  0  0  0  0  0  0
   -2.4527    1.0731    0.6413 H   0  0  0  0  0  0  0  0  0  0  0  0
    1.8911    0.0070   -0.3284 N   0  0  0  0  0  0  0  0  0  0  0  0
    2.7090    0.7760   -0.6735 N   0  0  0  0  0  0  0  0  0  0  0  0
    2.0412    2.3157   -1.8959 Cl  0  0  0  0  0  0  0  0  0  0  0  0
   -3.3048   -0.6888   -0.8889 H   0  0  0  0  0  0  0  0  0  0  0  0
  1  2  2  0  0  0  0
  1  6  1  0  0  0  0
  2  3  1  0  0  0  0
  3 11  1  0  0  0  0
  3  4  2  0  0  0  0
  4  9  1  0  0  0  0
  5  4  1  0  0  0  0
  5 10  1  0  0  0  0
  6  5  2  0  0  0  0
  7  1  1  0  0  0  0
  8  2  1  0  0  0  0
 12 11  2  0  0  0  0
 13 12  1  0  0  0  0
 14  6  1  0  0  0  0
M  END
