Coordinates from ORCA-job Ph-N2-X-Cl-B3LYPG-6-31G_dp-scan-d09-49-n400
 OpenBabel08281821073D

 14 14  0  0  0  0  0  0  0  0999 V2000
   -1.3833   -1.4210   -1.4394 C   0  0  0  0  0  0  0  0  0  0  0  0
   -0.0048   -1.2467   -1.3502 C   0  0  0  0  0  0  0  0  0  0  0  0
    0.4910   -0.1694   -0.6092 C   0  0  0  0  0  0  0  0  0  0  0  0
   -0.3523    0.6953    0.0982 C   0  0  0  0  0  0  0  0  0  0  0  0
   -1.7275    0.4845    0.0173 C   0  0  0  0  0  0  0  0  0  0  0  0
   -2.2439   -0.5587   -0.7555 C   0  0  0  0  0  0  0  0  0  0  0  0
   -1.7836   -2.2377   -2.0317 H   0  0  0  0  0  0  0  0  0  0  0  0
    0.6847   -1.9135   -1.8562 H   0  0  0  0  0  0  0  0  0  0  0  0
    0.0522    1.4941    0.7075 H   0  0  0  0  0  0  0  0  0  0  0  0
   -2.3969    1.1443    0.5600 H   0  0  0  0  0  0  0  0  0  0  0  0
    1.8992   -0.0444   -0.5203 N   0  0  0  0  0  0  0  0  0  0  0  0
    2.7218    0.7769   -0.6781 N   0  0  0  0  0  0  0  0  0  0  0  0
    2.0699    2.6425   -1.3852 Cl  0  0  0  0  0  0  0  0  0  0  0  0
   -3.3180   -0.7061   -0.8159 H   0  0  0  0  0  0  0  0  0  0  0  0
  1  2  2  0  0  0  0
  1  6  1  0  0  0  0
  2  3  1  0  0  0  0
  3 11  1  0  0  0  0
  3  4  2  0  0  0  0
  4  9  1  0  0  0  0
  5  4  1  0  0  0  0
  5 10  1  0  0  0  0
  6  5  2  0  0  0  0
  7  1  1  0  0  0  0
  8  2  1  0  0  0  0
 12 11  2  0  0  0  0
 13 12  1  0  0  0  0
 14  6  1  0  0  0  0
M  END
