Coordinates from ORCA-job Ph-N2-X-Cl-B3LYPG-6-31G_dp-scan-d09-49-n400
 OpenBabel08281821073D

 14 13  0  0  0  0  0  0  0  0999 V2000
   -1.4241   -1.5793   -1.2554 C   0  0  0  0  0  0  0  0  0  0  0  0
   -0.0612   -1.3501   -1.4095 C   0  0  0  0  0  0  0  0  0  0  0  0
    0.4684   -0.1489   -0.9219 C   0  0  0  0  0  0  0  0  0  0  0  0
   -0.3120    0.8280   -0.2888 C   0  0  0  0  0  0  0  0  0  0  0  0
   -1.6741    0.5736   -0.1478 C   0  0  0  0  0  0  0  0  0  0  0  0
   -2.2258   -0.6192   -0.6261 C   0  0  0  0  0  0  0  0  0  0  0  0
   -1.8624   -2.5014   -1.6226 H   0  0  0  0  0  0  0  0  0  0  0  0
    0.5903   -2.0714   -1.8905 H   0  0  0  0  0  0  0  0  0  0  0  0
    0.2074    1.7299    0.0544 H   0  0  0  0  0  0  0  0  0  0  0  0
   -2.3078    1.3095    0.3372 H   0  0  0  0  0  0  0  0  0  0  0  0
    1.8523    0.0599   -1.0895 N   0  0  0  0  0  0  0  0  0  0  0  0
    2.6843    0.8454   -0.8618 N   0  0  0  0  0  0  0  0  0  0  0  0
    2.0629    2.6690    0.1712 Cl  0  0  0  0  0  0  0  0  0  0  0  0
   -3.2894   -0.8051   -0.5076 H   0  0  0  0  0  0  0  0  0  0  0  0
  1  6  1  0  0  0  0
  2  1  2  0  0  0  0
  2  3  1  0  0  0  0
  3  4  2  0  0  0  0
  4  5  1  0  0  0  0
  4  9  1  0  0  0  0
  5 10  1  0  0  0  0
  6 14  1  0  0  0  0
  6  5  2  0  0  0  0
  7  1  1  0  0  0  0
  8  2  1  0  0  0  0
 11  3  1  0  0  0  0
 11 12  2  0  0  0  0
M  RAD  2  12   2  13   2
M  END
