Coordinates from ORCA-job Ph-N2-X-Cl-B3LYPG-6-31G_dp-scan-d09-49-n400
 OpenBabel08281821073D

 14 14  0  0  0  0  0  0  0  0999 V2000
   -1.4077   -1.4772   -1.3947 C   0  0  0  0  0  0  0  0  0  0  0  0
   -0.0299   -1.2867   -1.3614 C   0  0  0  0  0  0  0  0  0  0  0  0
    0.4846   -0.1683   -0.6937 C   0  0  0  0  0  0  0  0  0  0  0  0
   -0.3437    0.7303   -0.0079 C   0  0  0  0  0  0  0  0  0  0  0  0
   -1.7183    0.5036   -0.0306 C   0  0  0  0  0  0  0  0  0  0  0  0
   -2.2509   -0.5840   -0.7280 C   0  0  0  0  0  0  0  0  0  0  0  0
   -1.8213   -2.3278   -1.9269 H   0  0  0  0  0  0  0  0  0  0  0  0
    0.6504   -1.9742   -1.8519 H   0  0  0  0  0  0  0  0  0  0  0  0
    0.0746    1.5682    0.5331 H   0  0  0  0  0  0  0  0  0  0  0  0
   -2.3758    1.1864    0.4980 H   0  0  0  0  0  0  0  0  0  0  0  0
    1.8912   -0.0447   -0.6829 N   0  0  0  0  0  0  0  0  0  0  0  0
    2.7359    0.7661   -0.7185 N   0  0  0  0  0  0  0  0  0  0  0  0
    2.1448    2.7900   -0.9505 Cl  0  0  0  0  0  0  0  0  0  0  0  0
   -3.3254   -0.7416   -0.7429 H   0  0  0  0  0  0  0  0  0  0  0  0
  1  2  2  0  0  0  0
  1  6  1  0  0  0  0
  2  3  1  0  0  0  0
  3 11  1  0  0  0  0
  3  4  2  0  0  0  0
  4  9  1  0  0  0  0
  5  4  1  0  0  0  0
  5 10  1  0  0  0  0
  6  5  2  0  0  0  0
  7  1  1  0  0  0  0
  8  2  1  0  0  0  0
 12 11  2  0  0  0  0
 13 12  1  0  0  0  0
 14  6  1  0  0  0  0
M  END
