Coordinates from ORCA-job Ph-N2-X-Cl-B3LYPG-6-31G_dp-scan-d09-49-n400
 OpenBabel08281821073D

 14 14  0  0  0  0  0  0  0  0999 V2000
   -1.3034   -1.2754   -1.5183 C   0  0  0  0  0  0  0  0  0  0  0  0
    0.0646   -1.0740   -1.3420 C   0  0  0  0  0  0  0  0  0  0  0  0
    0.4777   -0.1015   -0.4306 C   0  0  0  0  0  0  0  0  0  0  0  0
   -0.4253    0.6428    0.3289 C   0  0  0  0  0  0  0  0  0  0  0  0
   -1.7887    0.4259    0.1346 C   0  0  0  0  0  0  0  0  0  0  0  0
   -2.2283   -0.5300   -0.7840 C   0  0  0  0  0  0  0  0  0  0  0  0
   -1.6444   -2.0174   -2.2337 H   0  0  0  0  0  0  0  0  0  0  0  0
    0.7974   -1.6417   -1.9040 H   0  0  0  0  0  0  0  0  0  0  0  0
   -0.0642    1.3808    1.0366 H   0  0  0  0  0  0  0  0  0  0  0  0
   -2.5063    1.0075    0.7043 H   0  0  0  0  0  0  0  0  0  0  0  0
    1.8739    0.0816   -0.2067 N   0  0  0  0  0  0  0  0  0  0  0  0
    2.7016    0.7590   -0.6960 N   0  0  0  0  0  0  0  0  0  0  0  0
    2.0459    1.9779   -2.2217 Cl  0  0  0  0  0  0  0  0  0  0  0  0
   -3.2918   -0.6955   -0.9262 H   0  0  0  0  0  0  0  0  0  0  0  0
  1  2  2  0  0  0  0
  1  6  1  0  0  0  0
  2  3  1  0  0  0  0
  3 11  1  0  0  0  0
  3  4  2  0  0  0  0
  4  9  1  0  0  0  0
  5  4  1  0  0  0  0
  5 10  1  0  0  0  0
  6  5  2  0  0  0  0
  7  1  1  0  0  0  0
  8  2  1  0  0  0  0
 12 11  2  0  0  0  0
 13 12  1  0  0  0  0
 14  6  1  0  0  0  0
M  END
