Coordinates from ORCA-job Ph-N2-X-Cl-B3LYPG-6-31G_dp-scan-d09-49-n400
 OpenBabel08281821073D

 14 14  0  0  0  0  0  0  0  0999 V2000
   -1.4233   -1.5796   -1.2556 C   0  0  0  0  0  0  0  0  0  0  0  0
   -0.0611   -1.3445   -1.4068 C   0  0  0  0  0  0  0  0  0  0  0  0
    0.4663   -0.1423   -0.9184 C   0  0  0  0  0  0  0  0  0  0  0  0
   -0.3210    0.8304   -0.2861 C   0  0  0  0  0  0  0  0  0  0  0  0
   -1.6822    0.5709   -0.1477 C   0  0  0  0  0  0  0  0  0  0  0  0
   -2.2297   -0.6234   -0.6273 C   0  0  0  0  0  0  0  0  0  0  0  0
   -1.8569   -2.5033   -1.6244 H   0  0  0  0  0  0  0  0  0  0  0  0
    0.5939   -2.0633   -1.8872 H   0  0  0  0  0  0  0  0  0  0  0  0
    0.1822    1.7354    0.0615 H   0  0  0  0  0  0  0  0  0  0  0  0
   -2.3187    1.3047    0.3367 H   0  0  0  0  0  0  0  0  0  0  0  0
    1.8503    0.0613   -1.0887 N   0  0  0  0  0  0  0  0  0  0  0  0
    2.6922    0.8386   -0.8666 N   0  0  0  0  0  0  0  0  0  0  0  0
    2.1093    2.6676    0.1623 Cl  0  0  0  0  0  0  0  0  0  0  0  0
   -3.2928   -0.8126   -0.5105 H   0  0  0  0  0  0  0  0  0  0  0  0
  1  6  1  0  0  0  0
  2  1  2  0  0  0  0
  2  3  1  0  0  0  0
  3  4  2  0  0  0  0
  4  5  1  0  0  0  0
  4  9  1  0  0  0  0
  5 10  1  0  0  0  0
  6 14  1  0  0  0  0
  6  5  2  0  0  0  0
  7  1  1  0  0  0  0
  8  2  1  0  0  0  0
 11  3  1  0  0  0  0
 11 12  2  0  0  0  0
 12 13  1  0  0  0  0
M  END
