Coordinates from ORCA-job Ph-N2-X-Cl-B3LYPG-6-31G_dp-scan-d09-49-n400
 OpenBabel08281821073D

 14 14  0  0  0  0  0  0  0  0999 V2000
   -1.4161   -1.5027   -1.3702 C   0  0  0  0  0  0  0  0  0  0  0  0
   -0.0402   -1.2986   -1.3681 C   0  0  0  0  0  0  0  0  0  0  0  0
    0.4785   -0.1608   -0.7356 C   0  0  0  0  0  0  0  0  0  0  0  0
   -0.3460    0.7508   -0.0604 C   0  0  0  0  0  0  0  0  0  0  0  0
   -1.7186    0.5122   -0.0537 C   0  0  0  0  0  0  0  0  0  0  0  0
   -2.2542   -0.5987   -0.7113 C   0  0  0  0  0  0  0  0  0  0  0  0
   -1.8322   -2.3703   -1.8720 H   0  0  0  0  0  0  0  0  0  0  0  0
    0.6377   -1.9920   -1.8537 H   0  0  0  0  0  0  0  0  0  0  0  0
    0.0762    1.6082    0.4449 H   0  0  0  0  0  0  0  0  0  0  0  0
   -2.3729    1.2040    0.4670 H   0  0  0  0  0  0  0  0  0  0  0  0
    1.8827   -0.0324   -0.7638 N   0  0  0  0  0  0  0  0  0  0  0  0
    2.7421    0.7620   -0.7478 N   0  0  0  0  0  0  0  0  0  0  0  0
    2.1991    2.8237   -0.7319 Cl  0  0  0  0  0  0  0  0  0  0  0  0
   -3.3274   -0.7653   -0.7021 H   0  0  0  0  0  0  0  0  0  0  0  0
  1  2  2  0  0  0  0
  1  6  1  0  0  0  0
  2  3  1  0  0  0  0
  3  4  2  0  0  0  0
  4  5  1  0  0  0  0
  4  9  1  0  0  0  0
  5 10  1  0  0  0  0
  6 14  1  0  0  0  0
  6  5  2  0  0  0  0
  7  1  1  0  0  0  0
  8  2  1  0  0  0  0
 11 12  2  0  0  0  0
 11  3  1  0  0  0  0
 12 13  1  0  0  0  0
M  END
