Coordinates from ORCA-job Ph-N2-X-Cl-B3LYPG-6-31G_dp-scan-d09-49-n400
 OpenBabel08281821073D

 14 13  0  0  0  0  0  0  0  0999 V2000
   -1.4475   -1.6520   -1.2854 C   0  0  0  0  0  0  0  0  0  0  0  0
   -0.0939   -1.4763   -1.4654 C   0  0  0  0  0  0  0  0  0  0  0  0
    0.4297   -0.2520   -0.9684 C   0  0  0  0  0  0  0  0  0  0  0  0
   -0.2185    0.8141   -0.3187 C   0  0  0  0  0  0  0  0  0  0  0  0
   -1.6035    0.5336   -0.1846 C   0  0  0  0  0  0  0  0  0  0  0  0
   -2.1986   -0.6387   -0.6412 C   0  0  0  0  0  0  0  0  0  0  0  0
   -1.9330   -2.5578   -1.6332 H   0  0  0  0  0  0  0  0  0  0  0  0
    0.5312   -2.2201   -1.9509 H   0  0  0  0  0  0  0  0  0  0  0  0
    0.7165    2.4110    0.3011 H   0  0  0  0  0  0  0  0  0  0  0  0
   -2.2399    1.2722    0.3017 H   0  0  0  0  0  0  0  0  0  0  0  0
    1.7915   -0.0441   -1.1319 N   0  0  0  0  0  0  0  0  0  0  0  0
    2.8822    0.1823   -1.2333 N   0  0  0  0  0  0  0  0  0  0  0  0
    1.3596    3.3608    0.6562 Cl  0  0  0  0  0  0  0  0  0  0  0  0
   -3.2672   -0.7931   -0.5045 H   0  0  0  0  0  0  0  0  0  0  0  0
  1  6  1  0  0  0  0
  2  1  2  0  0  0  0
  2  3  1  0  0  0  0
  3  4  2  0  0  0  0
  4  5  1  0  0  0  0
  5 10  1  0  0  0  0
  6 14  1  0  0  0  0
  6  5  2  0  0  0  0
  7  1  1  0  0  0  0
  8  2  1  0  0  0  0
  9 13  1  0  0  0  0
 11  3  1  0  0  0  0
 12 11  1  0  0  0  0
M  RAD  3   4   2  11   2  12   3
M  END
