Coordinates from ORCA-job Ph-N2-X-Cl-B3LYPG-6-31G_dp-scan-d09-49-n400
 OpenBabel08281821073D

 14 14  0  0  0  0  0  0  0  0999 V2000
   -1.3383   -1.3370   -1.4897 C   0  0  0  0  0  0  0  0  0  0  0  0
    0.0357   -1.1571   -1.3412 C   0  0  0  0  0  0  0  0  0  0  0  0
    0.4863   -0.1400   -0.4977 C   0  0  0  0  0  0  0  0  0  0  0  0
   -0.3898    0.6598    0.2401 C   0  0  0  0  0  0  0  0  0  0  0  0
   -1.7597    0.4519    0.0865 C   0  0  0  0  0  0  0  0  0  0  0  0
   -2.2348   -0.5370   -0.7780 C   0  0  0  0  0  0  0  0  0  0  0  0
   -1.7061   -2.1086   -2.1589 H   0  0  0  0  0  0  0  0  0  0  0  0
    0.7482   -1.7734   -1.8777 H   0  0  0  0  0  0  0  0  0  0  0  0
   -0.0110    1.4177    0.9169 H   0  0  0  0  0  0  0  0  0  0  0  0
   -2.4557    1.0696    0.6450 H   0  0  0  0  0  0  0  0  0  0  0  0
    1.8907    0.0104   -0.3197 N   0  0  0  0  0  0  0  0  0  0  0  0
    2.7080    0.7758   -0.6748 N   0  0  0  0  0  0  0  0  0  0  0  0
    2.0392    2.2961   -1.9175 Cl  0  0  0  0  0  0  0  0  0  0  0  0
   -3.3039   -0.6883   -0.8921 H   0  0  0  0  0  0  0  0  0  0  0  0
  1  2  2  0  0  0  0
  1  6  1  0  0  0  0
  2  3  1  0  0  0  0
  3 11  1  0  0  0  0
  3  4  2  0  0  0  0
  4  9  1  0  0  0  0
  5  4  1  0  0  0  0
  5 10  1  0  0  0  0
  6  5  2  0  0  0  0
  7  1  1  0  0  0  0
  8  2  1  0  0  0  0
 12 11  2  0  0  0  0
 13 12  1  0  0  0  0
 14  6  1  0  0  0  0
M  END
