Coordinates from ORCA-job Ph-N2-X-Cl-B3LYPG-6-31G_dp-scan-d09-49-n400
 OpenBabel08281821073D

 14 13  0  0  0  0  0  0  0  0999 V2000
   -1.4349   -1.5879   -1.2585 C   0  0  0  0  0  0  0  0  0  0  0  0
   -0.0697   -1.4056   -1.4352 C   0  0  0  0  0  0  0  0  0  0  0  0
    0.4632   -0.2067   -0.9481 C   0  0  0  0  0  0  0  0  0  0  0  0
   -0.2363    0.8135   -0.3086 C   0  0  0  0  0  0  0  0  0  0  0  0
   -1.6081    0.5863   -0.1536 C   0  0  0  0  0  0  0  0  0  0  0  0
   -2.1959   -0.5936   -0.6199 C   0  0  0  0  0  0  0  0  0  0  0  0
   -1.9114   -2.4960   -1.6127 H   0  0  0  0  0  0  0  0  0  0  0  0
    0.5571   -2.1463   -1.9211 H   0  0  0  0  0  0  0  0  0  0  0  0
    0.4750    1.7731    0.0283 H   0  0  0  0  0  0  0  0  0  0  0  0
   -2.2262    1.3351    0.3352 H   0  0  0  0  0  0  0  0  0  0  0  0
    1.8532    0.0551   -1.0897 N   0  0  0  0  0  0  0  0  0  0  0  0
    2.6522    0.8430   -0.8570 N   0  0  0  0  0  0  0  0  0  0  0  0
    1.6535    2.7211    0.2693 Cl  0  0  0  0  0  0  0  0  0  0  0  0
   -3.2632   -0.7511   -0.4872 H   0  0  0  0  0  0  0  0  0  0  0  0
  1  6  1  0  0  0  0
  2  1  2  0  0  0  0
  2  3  1  0  0  0  0
  3  4  2  0  0  0  0
  4  5  1  0  0  0  0
  4  9  1  0  0  0  0
  5 10  1  0  0  0  0
  6 14  1  0  0  0  0
  6  5  2  0  0  0  0
  7  1  1  0  0  0  0
  8  2  1  0  0  0  0
 11  3  1  0  0  0  0
 11 12  2  0  0  0  0
M  RAD  2  12   2  13   2
M  END
