Coordinates from ORCA-job Ph-N2-X-Cl-B3LYPG-6-31G_dp-scan-d09-49-n400
 OpenBabel08281821073D

 14 14  0  0  0  0  0  0  0  0999 V2000
   -1.4224   -1.5801   -1.2560 C   0  0  0  0  0  0  0  0  0  0  0  0
   -0.0610   -1.3383   -1.4038 C   0  0  0  0  0  0  0  0  0  0  0  0
    0.4635   -0.1348   -0.9143 C   0  0  0  0  0  0  0  0  0  0  0  0
   -0.3313    0.8332   -0.2831 C   0  0  0  0  0  0  0  0  0  0  0  0
   -1.6917    0.5676   -0.1476 C   0  0  0  0  0  0  0  0  0  0  0  0
   -2.2341   -0.6283   -0.6287 C   0  0  0  0  0  0  0  0  0  0  0  0
   -1.8507   -2.5055   -1.6265 H   0  0  0  0  0  0  0  0  0  0  0  0
    0.5978   -2.0540   -1.8834 H   0  0  0  0  0  0  0  0  0  0  0  0
    0.1545    1.7420    0.0693 H   0  0  0  0  0  0  0  0  0  0  0  0
   -2.3315    1.2989    0.3362 H   0  0  0  0  0  0  0  0  0  0  0  0
    1.8475    0.0634   -1.0873 N   0  0  0  0  0  0  0  0  0  0  0  0
    2.7012    0.8306   -0.8721 N   0  0  0  0  0  0  0  0  0  0  0  0
    2.1634    2.6671    0.1525 Cl  0  0  0  0  0  0  0  0  0  0  0  0
   -3.2966   -0.8216   -0.5139 H   0  0  0  0  0  0  0  0  0  0  0  0
  1  6  1  0  0  0  0
  2  1  2  0  0  0  0
  2  3  1  0  0  0  0
  3  4  2  0  0  0  0
  4  5  1  0  0  0  0
  4  9  1  0  0  0  0
  5 10  1  0  0  0  0
  6 14  1  0  0  0  0
  6  5  2  0  0  0  0
  7  1  1  0  0  0  0
  8  2  1  0  0  0  0
 11  3  1  0  0  0  0
 11 12  2  0  0  0  0
 12 13  1  0  0  0  0
M  END
