Coordinates from ORCA-job Ph-N2-X-Cl-B3LYPG-6-31G_dp-scan-d09-49-n400
 OpenBabel08281821073D

 14 14  0  0  0  0  0  0  0  0999 V2000
   -1.2562   -1.1150   -1.5785 C   0  0  0  0  0  0  0  0  0  0  0  0
    0.0853   -0.7788   -1.4094 C   0  0  0  0  0  0  0  0  0  0  0  0
    0.4158    0.1052   -0.3756 C   0  0  0  0  0  0  0  0  0  0  0  0
   -0.5477    0.6365    0.4850 C   0  0  0  0  0  0  0  0  0  0  0  0
   -1.8858    0.3134    0.2796 C   0  0  0  0  0  0  0  0  0  0  0  0
   -2.2377   -0.5678   -0.7469 C   0  0  0  0  0  0  0  0  0  0  0  0
   -1.5357   -1.8025   -2.3707 H   0  0  0  0  0  0  0  0  0  0  0  0
    0.8574   -1.1779   -2.0537 H   0  0  0  0  0  0  0  0  0  0  0  0
   -0.2280    1.3089    1.2719 H   0  0  0  0  0  0  0  0  0  0  0  0
   -2.6487    0.7376    0.9239 H   0  0  0  0  0  0  0  0  0  0  0  0
    1.7600    0.4518   -0.1019 N   0  0  0  0  0  0  0  0  0  0  0  0
    2.7214    0.7457   -0.7106 N   0  0  0  0  0  0  0  0  0  0  0  0
    2.4881    0.9162   -2.7753 Cl  0  0  0  0  0  0  0  0  0  0  0  0
   -3.2797   -0.8335   -0.8966 H   0  0  0  0  0  0  0  0  0  0  0  0
  1  2  2  0  0  0  0
  1  6  1  0  0  0  0
  2  3  1  0  0  0  0
  3 11  1  0  0  0  0
  3  4  2  0  0  0  0
  4  9  1  0  0  0  0
  5  4  1  0  0  0  0
  5 10  1  0  0  0  0
  6  5  2  0  0  0  0
  7  1  1  0  0  0  0
  8  2  1  0  0  0  0
 12 11  2  0  0  0  0
 13 12  1  0  0  0  0
 14  6  1  0  0  0  0
M  END
