Coordinates from ORCA-job Ph-N2-X-Cl-B3LYPG-6-31G_dp-scan-d09-49-n400
 OpenBabel08281821073D

 14 14  0  0  0  0  0  0  0  0999 V2000
   -1.3887   -1.4325   -1.4311 C   0  0  0  0  0  0  0  0  0  0  0  0
   -0.0099   -1.2568   -1.3519 C   0  0  0  0  0  0  0  0  0  0  0  0
    0.4909   -0.1713   -0.6257 C   0  0  0  0  0  0  0  0  0  0  0  0
   -0.3484    0.7014    0.0772 C   0  0  0  0  0  0  0  0  0  0  0  0
   -1.7240    0.4889    0.0073 C   0  0  0  0  0  0  0  0  0  0  0  0
   -2.2449   -0.5625   -0.7511 C   0  0  0  0  0  0  0  0  0  0  0  0
   -1.7927   -2.2557   -2.0117 H   0  0  0  0  0  0  0  0  0  0  0  0
    0.6770   -1.9290   -1.8540 H   0  0  0  0  0  0  0  0  0  0  0  0
    0.0596    1.5074    0.6741 H   0  0  0  0  0  0  0  0  0  0  0  0
   -2.3902    1.1541    0.5472 H   0  0  0  0  0  0  0  0  0  0  0  0
    1.8992   -0.0478   -0.5520 N   0  0  0  0  0  0  0  0  0  0  0  0
    2.7238    0.7757   -0.6842 N   0  0  0  0  0  0  0  0  0  0  0  0
    2.0764    2.6786   -1.2998 Cl  0  0  0  0  0  0  0  0  0  0  0  0
   -3.3194   -0.7105   -0.8032 H   0  0  0  0  0  0  0  0  0  0  0  0
  1  2  2  0  0  0  0
  1  6  1  0  0  0  0
  2  3  1  0  0  0  0
  3 11  1  0  0  0  0
  3  4  2  0  0  0  0
  4  9  1  0  0  0  0
  5  4  1  0  0  0  0
  5 10  1  0  0  0  0
  6  5  2  0  0  0  0
  7  1  1  0  0  0  0
  8  2  1  0  0  0  0
 12 11  2  0  0  0  0
 13 12  1  0  0  0  0
 14  6  1  0  0  0  0
M  END
