Coordinates from ORCA-job Ph-N2-X-Cl-B3LYPG-6-31G_dp-scan-d09-49-n400
 OpenBabel08281821073D

 14 14  0  0  0  0  0  0  0  0999 V2000
   -1.4207   -1.5809   -1.2576 C   0  0  0  0  0  0  0  0  0  0  0  0
   -0.0610   -1.3264   -1.3979 C   0  0  0  0  0  0  0  0  0  0  0  0
    0.4572   -0.1206   -0.9050 C   0  0  0  0  0  0  0  0  0  0  0  0
   -0.3516    0.8382   -0.2753 C   0  0  0  0  0  0  0  0  0  0  0  0
   -1.7102    0.5605   -0.1466 C   0  0  0  0  0  0  0  0  0  0  0  0
   -2.2428   -0.6378   -0.6322 C   0  0  0  0  0  0  0  0  0  0  0  0
   -1.8388   -2.5091   -1.6327 H   0  0  0  0  0  0  0  0  0  0  0  0
    0.6055   -2.0358   -1.8762 H   0  0  0  0  0  0  0  0  0  0  0  0
    0.1019    1.7542    0.0870 H   0  0  0  0  0  0  0  0  0  0  0  0
   -2.3568    1.2863    0.3362 H   0  0  0  0  0  0  0  0  0  0  0  0
    1.8417    0.0676   -1.0814 N   0  0  0  0  0  0  0  0  0  0  0  0
    2.7190    0.8131   -0.8822 N   0  0  0  0  0  0  0  0  0  0  0  0
    2.2698    2.6696    0.1269 Cl  0  0  0  0  0  0  0  0  0  0  0  0
   -3.3044   -0.8388   -0.5219 H   0  0  0  0  0  0  0  0  0  0  0  0
  1  6  1  0  0  0  0
  2  1  2  0  0  0  0
  2  3  1  0  0  0  0
  3  4  2  0  0  0  0
  4  5  1  0  0  0  0
  4  9  1  0  0  0  0
  5 10  1  0  0  0  0
  6 14  1  0  0  0  0
  6  5  2  0  0  0  0
  7  1  1  0  0  0  0
  8  2  1  0  0  0  0
 11  3  1  0  0  0  0
 11 12  2  0  0  0  0
 12 13  1  0  0  0  0
M  END
