Coordinates from ORCA-job Ph-N2-X-Cl-B3LYPG-6-31G_dp-scan-d09-49-n400
 OpenBabel08281821073D

 14 14  0  0  0  0  0  0  0  0999 V2000
   -1.3469   -1.3522   -1.4817 C   0  0  0  0  0  0  0  0  0  0  0  0
    0.0281   -1.1750   -1.3424 C   0  0  0  0  0  0  0  0  0  0  0  0
    0.4875   -0.1470   -0.5166 C   0  0  0  0  0  0  0  0  0  0  0  0
   -0.3823    0.6651    0.2162 C   0  0  0  0  0  0  0  0  0  0  0  0
   -1.7535    0.4577    0.0745 C   0  0  0  0  0  0  0  0  0  0  0  0
   -2.2367   -0.5402   -0.7749 C   0  0  0  0  0  0  0  0  0  0  0  0
   -1.7211   -2.1316   -2.1382 H   0  0  0  0  0  0  0  0  0  0  0  0
    0.7361   -1.8016   -1.8732 H   0  0  0  0  0  0  0  0  0  0  0  0
    0.0011    1.4291    0.8834 H   0  0  0  0  0  0  0  0  0  0  0  0
   -2.4443    1.0833    0.6306 H   0  0  0  0  0  0  0  0  0  0  0  0
    1.8929   -0.0027   -0.3517 N   0  0  0  0  0  0  0  0  0  0  0  0
    2.7106    0.7772   -0.6710 N   0  0  0  0  0  0  0  0  0  0  0  0
    2.0441    2.3678   -1.8336 Cl  0  0  0  0  0  0  0  0  0  0  0  0
   -3.3069   -0.6899   -0.8803 H   0  0  0  0  0  0  0  0  0  0  0  0
  1  2  2  0  0  0  0
  1  6  1  0  0  0  0
  2  3  1  0  0  0  0
  3 11  1  0  0  0  0
  3  4  2  0  0  0  0
  4  9  1  0  0  0  0
  5  4  1  0  0  0  0
  5 10  1  0  0  0  0
  6  5  2  0  0  0  0
  7  1  1  0  0  0  0
  8  2  1  0  0  0  0
 12 11  2  0  0  0  0
 13 12  1  0  0  0  0
 14  6  1  0  0  0  0
M  END
