Coordinates from ORCA-job Ph-N2-X-Cl-B3LYPG-6-31G_dp-scan-d09-49-n400
 OpenBabel08281821073D

 14 14  0  0  0  0  0  0  0  0999 V2000
   -1.2544   -1.1358   -1.5707 C   0  0  0  0  0  0  0  0  0  0  0  0
    0.0915   -0.8231   -1.3920 C   0  0  0  0  0  0  0  0  0  0  0  0
    0.4286    0.0691   -0.3687 C   0  0  0  0  0  0  0  0  0  0  0  0
   -0.5309    0.6344    0.4723 C   0  0  0  0  0  0  0  0  0  0  0  0
   -1.8734    0.3342    0.2574 C   0  0  0  0  0  0  0  0  0  0  0  0
   -2.2330   -0.5569   -0.7575 C   0  0  0  0  0  0  0  0  0  0  0  0
   -1.5394   -1.8290   -2.3560 H   0  0  0  0  0  0  0  0  0  0  0  0
    0.8619   -1.2471   -2.0229 H   0  0  0  0  0  0  0  0  0  0  0  0
   -0.2063    1.3176    1.2478 H   0  0  0  0  0  0  0  0  0  0  0  0
   -2.6340    0.7855    0.8858 H   0  0  0  0  0  0  0  0  0  0  0  0
    1.7824    0.3844   -0.0929 N   0  0  0  0  0  0  0  0  0  0  0  0
    2.7175    0.7308   -0.7170 N   0  0  0  0  0  0  0  0  0  0  0  0
    2.3768    1.0803   -2.7309 Cl  0  0  0  0  0  0  0  0  0  0  0  0
   -3.2786   -0.8044   -0.9134 H   0  0  0  0  0  0  0  0  0  0  0  0
  1  2  2  0  0  0  0
  1  6  1  0  0  0  0
  2  3  1  0  0  0  0
  3 11  1  0  0  0  0
  3  4  2  0  0  0  0
  4  9  1  0  0  0  0
  5  4  1  0  0  0  0
  5 10  1  0  0  0  0
  6  5  2  0  0  0  0
  7  1  1  0  0  0  0
  8  2  1  0  0  0  0
 12 11  2  0  0  0  0
 13 12  1  0  0  0  0
 14  6  1  0  0  0  0
M  END
