Coordinates from ORCA-job Ph-N2-X-Cl-B3LYPG-6-31G_dp-scan-d09-49-n400
 OpenBabel08281821073D

 14 13  0  0  0  0  0  0  0  0999 V2000
   -1.4266   -1.5787   -1.2554 C   0  0  0  0  0  0  0  0  0  0  0  0
   -0.0620   -1.3653   -1.4168 C   0  0  0  0  0  0  0  0  0  0  0  0
    0.4728   -0.1669   -0.9307 C   0  0  0  0  0  0  0  0  0  0  0  0
   -0.2879    0.8217   -0.2952 C   0  0  0  0  0  0  0  0  0  0  0  0
   -1.6522    0.5805   -0.1481 C   0  0  0  0  0  0  0  0  0  0  0  0
   -2.2155   -0.6084   -0.6233 C   0  0  0  0  0  0  0  0  0  0  0  0
   -1.8773   -2.4963   -1.6188 H   0  0  0  0  0  0  0  0  0  0  0  0
    0.5807   -2.0936   -1.8996 H   0  0  0  0  0  0  0  0  0  0  0  0
    0.2775    1.7179    0.0377 H   0  0  0  0  0  0  0  0  0  0  0  0
   -2.2788    1.3216    0.3386 H   0  0  0  0  0  0  0  0  0  0  0  0
    1.8570    0.0568   -1.0904 N   0  0  0  0  0  0  0  0  0  0  0  0
    2.6638    0.8606   -0.8500 N   0  0  0  0  0  0  0  0  0  0  0  0
    1.9375    2.6752    0.1935 Cl  0  0  0  0  0  0  0  0  0  0  0  0
   -3.2803   -0.7850   -0.5004 H   0  0  0  0  0  0  0  0  0  0  0  0
  1  6  1  0  0  0  0
  2  1  2  0  0  0  0
  2  3  1  0  0  0  0
  3  4  2  0  0  0  0
  4  5  1  0  0  0  0
  4  9  1  0  0  0  0
  5 10  1  0  0  0  0
  6 14  1  0  0  0  0
  6  5  2  0  0  0  0
  7  1  1  0  0  0  0
  8  2  1  0  0  0  0
 11  3  1  0  0  0  0
 11 12  2  0  0  0  0
M  RAD  2  12   2  13   2
M  END
