Coordinates from ORCA-job Ph-N2-X-Cl-B3LYPG-6-31G_dp-scan-d09-49-n400
 OpenBabel08281821073D

 14 14  0  0  0  0  0  0  0  0999 V2000
   -1.4003   -1.4586   -1.4107 C   0  0  0  0  0  0  0  0  0  0  0  0
   -0.0218   -1.2758   -1.3570 C   0  0  0  0  0  0  0  0  0  0  0  0
    0.4881   -0.1713   -0.6647 C   0  0  0  0  0  0  0  0  0  0  0  0
   -0.3441    0.7171    0.0284 C   0  0  0  0  0  0  0  0  0  0  0  0
   -1.7195    0.4977   -0.0148 C   0  0  0  0  0  0  0  0  0  0  0  0
   -2.2483   -0.5742   -0.7387 C   0  0  0  0  0  0  0  0  0  0  0  0
   -1.8108   -2.2976   -1.9634 H   0  0  0  0  0  0  0  0  0  0  0  0
    0.6608   -1.9580   -1.8517 H   0  0  0  0  0  0  0  0  0  0  0  0
    0.0706    1.5409    0.5943 H   0  0  0  0  0  0  0  0  0  0  0  0
   -2.3800    1.1737    0.5187 H   0  0  0  0  0  0  0  0  0  0  0  0
    1.8957   -0.0487   -0.6270 N   0  0  0  0  0  0  0  0  0  0  0  0
    2.7306    0.7703   -0.7022 N   0  0  0  0  0  0  0  0  0  0  0  0
    2.1108    2.7510   -1.1000 Cl  0  0  0  0  0  0  0  0  0  0  0  0
   -3.3231   -0.7266   -0.7700 H   0  0  0  0  0  0  0  0  0  0  0  0
  1  2  2  0  0  0  0
  1  6  1  0  0  0  0
  2  3  1  0  0  0  0
  3 11  1  0  0  0  0
  3  4  2  0  0  0  0
  4  9  1  0  0  0  0
  5  4  1  0  0  0  0
  5 10  1  0  0  0  0
  6  5  2  0  0  0  0
  7  1  1  0  0  0  0
  8  2  1  0  0  0  0
 12 11  2  0  0  0  0
 13 12  1  0  0  0  0
 14  6  1  0  0  0  0
M  END
