Coordinates from ORCA-job Ph-N2-X-Cl-B3LYPG-6-31G_dp-scan-d09-49-n400
 OpenBabel08281821073D

 14 13  0  0  0  0  0  0  0  0999 V2000
   -1.4326   -1.5837   -1.2569 C   0  0  0  0  0  0  0  0  0  0  0  0
   -0.0669   -1.3978   -1.4319 C   0  0  0  0  0  0  0  0  0  0  0  0
    0.4693   -0.2003   -0.9463 C   0  0  0  0  0  0  0  0  0  0  0  0
   -0.2429    0.8139   -0.3073 C   0  0  0  0  0  0  0  0  0  0  0  0
   -1.6128    0.5881   -0.1518 C   0  0  0  0  0  0  0  0  0  0  0  0
   -2.1974   -0.5932   -0.6194 C   0  0  0  0  0  0  0  0  0  0  0  0
   -1.9057   -2.4932   -1.6121 H   0  0  0  0  0  0  0  0  0  0  0  0
    0.5612   -2.1373   -1.9174 H   0  0  0  0  0  0  0  0  0  0  0  0
    0.4339    1.7431    0.0212 H   0  0  0  0  0  0  0  0  0  0  0  0
   -2.2305    1.3367    0.3369 H   0  0  0  0  0  0  0  0  0  0  0  0
    1.8576    0.0549   -1.0909 N   0  0  0  0  0  0  0  0  0  0  0  0
    2.6438    0.8600   -0.8469 N   0  0  0  0  0  0  0  0  0  0  0  0
    1.6961    2.7019    0.2519 Cl  0  0  0  0  0  0  0  0  0  0  0  0
   -3.2643   -0.7531   -0.4879 H   0  0  0  0  0  0  0  0  0  0  0  0
  1  6  1  0  0  0  0
  2  1  2  0  0  0  0
  2  3  1  0  0  0  0
  3  4  2  0  0  0  0
  4  5  1  0  0  0  0
  4  9  1  0  0  0  0
  5 10  1  0  0  0  0
  6 14  1  0  0  0  0
  6  5  2  0  0  0  0
  7  1  1  0  0  0  0
  8  2  1  0  0  0  0
 11  3  1  0  0  0  0
 11 12  2  0  0  0  0
M  RAD  2  12   2  13   2
M  END
