Coordinates from ORCA-job Ph-N2-X-Cl-B3LYPG-6-31G_dp-scan-d09-49-n400
 OpenBabel08281821073D

 14 14  0  0  0  0  0  0  0  0999 V2000
   -1.2554   -1.1577   -1.5628 C   0  0  0  0  0  0  0  0  0  0  0  0
    0.0948   -0.8685   -1.3767 C   0  0  0  0  0  0  0  0  0  0  0  0
    0.4407    0.0327   -0.3657 C   0  0  0  0  0  0  0  0  0  0  0  0
   -0.5125    0.6329    0.4564 C   0  0  0  0  0  0  0  0  0  0  0  0
   -1.8590    0.3538    0.2350 C   0  0  0  0  0  0  0  0  0  0  0  0
   -2.2288   -0.5475   -0.7668 C   0  0  0  0  0  0  0  0  0  0  0  0
   -1.5474   -1.8563   -2.3408 H   0  0  0  0  0  0  0  0  0  0  0  0
    0.8623   -1.3170   -1.9947 H   0  0  0  0  0  0  0  0  0  0  0  0
   -0.1823    1.3280    1.2188 H   0  0  0  0  0  0  0  0  0  0  0  0
   -2.6155    0.8321    0.8484 H   0  0  0  0  0  0  0  0  0  0  0  0
    1.8040    0.3184   -0.0918 N   0  0  0  0  0  0  0  0  0  0  0  0
    2.7120    0.7233   -0.7223 N   0  0  0  0  0  0  0  0  0  0  0  0
    2.2736    1.2426   -2.6688 Cl  0  0  0  0  0  0  0  0  0  0  0  0
   -3.2778   -0.7769   -0.9270 H   0  0  0  0  0  0  0  0  0  0  0  0
  1  2  2  0  0  0  0
  1  6  1  0  0  0  0
  2  3  1  0  0  0  0
  3 11  1  0  0  0  0
  3  4  2  0  0  0  0
  4  9  1  0  0  0  0
  5  4  1  0  0  0  0
  5 10  1  0  0  0  0
  6  5  2  0  0  0  0
  7  1  1  0  0  0  0
  8  2  1  0  0  0  0
 12 11  2  0  0  0  0
 13 12  1  0  0  0  0
 14  6  1  0  0  0  0
M  END
