Coordinates from ORCA-job Ph-N2-X-Cl-B3LYPG-6-31G_dp-scan-d09-49-n400
 OpenBabel08281821073D

 14 14  0  0  0  0  0  0  0  0999 V2000
   -1.4206   -1.5775   -1.2681 C   0  0  0  0  0  0  0  0  0  0  0  0
   -0.0608   -1.3149   -1.3907 C   0  0  0  0  0  0  0  0  0  0  0  0
    0.4523   -0.1115   -0.8841 C   0  0  0  0  0  0  0  0  0  0  0  0
   -0.3695    0.8356   -0.2522 C   0  0  0  0  0  0  0  0  0  0  0  0
   -1.7279    0.5493   -0.1387 C   0  0  0  0  0  0  0  0  0  0  0  0
   -2.2528   -0.6450   -0.6414 C   0  0  0  0  0  0  0  0  0  0  0  0
   -1.8296   -2.5041   -1.6569 H   0  0  0  0  0  0  0  0  0  0  0  0
    0.6135   -2.0173   -1.8681 H   0  0  0  0  0  0  0  0  0  0  0  0
    0.0527    1.7553    0.1297 H   0  0  0  0  0  0  0  0  0  0  0  0
   -2.3808    1.2679    0.3464 H   0  0  0  0  0  0  0  0  0  0  0  0
    1.8385    0.0637   -1.0531 N   0  0  0  0  0  0  0  0  0  0  0  0
    2.7384    0.7890   -0.8830 N   0  0  0  0  0  0  0  0  0  0  0  0
    2.3700    2.7001    0.0442 Cl  0  0  0  0  0  0  0  0  0  0  0  0
   -3.3146   -0.8505   -0.5428 H   0  0  0  0  0  0  0  0  0  0  0  0
  1  6  1  0  0  0  0
  2  1  2  0  0  0  0
  2  3  1  0  0  0  0
  3  4  2  0  0  0  0
  4  5  1  0  0  0  0
  4  9  1  0  0  0  0
  5 10  1  0  0  0  0
  6 14  1  0  0  0  0
  6  5  2  0  0  0  0
  7  1  1  0  0  0  0
  8  2  1  0  0  0  0
 11  3  1  0  0  0  0
 11 12  2  0  0  0  0
 12 13  1  0  0  0  0
M  END
