Coordinates from ORCA-job Ph-N2-X-Cl-B3LYPG-6-31G_dp-scan-d09-49-n400
 OpenBabel08281821073D

 14 14  0  0  0  0  0  0  0  0999 V2000
   -1.3023   -1.2735   -1.5191 C   0  0  0  0  0  0  0  0  0  0  0  0
    0.0655   -1.0711   -1.3422 C   0  0  0  0  0  0  0  0  0  0  0  0
    0.4774   -0.1000   -0.4287 C   0  0  0  0  0  0  0  0  0  0  0  0
   -0.4266    0.6424    0.3314 C   0  0  0  0  0  0  0  0  0  0  0  0
   -1.7897    0.4250    0.1361 C   0  0  0  0  0  0  0  0  0  0  0  0
   -2.2281   -0.5299   -0.7841 C   0  0  0  0  0  0  0  0  0  0  0  0
   -1.6425   -2.0146   -2.2359 H   0  0  0  0  0  0  0  0  0  0  0  0
    0.7990   -1.6371   -1.9050 H   0  0  0  0  0  0  0  0  0  0  0  0
   -0.0659    1.3799    1.0400 H   0  0  0  0  0  0  0  0  0  0  0  0
   -2.5080    1.0053    0.7063 H   0  0  0  0  0  0  0  0  0  0  0  0
    1.8732    0.0843   -0.2036 N   0  0  0  0  0  0  0  0  0  0  0  0
    2.7015    0.7582   -0.6967 N   0  0  0  0  0  0  0  0  0  0  0  0
    2.0469    1.9671   -2.2304 Cl  0  0  0  0  0  0  0  0  0  0  0  0
   -3.2914   -0.6961   -0.9269 H   0  0  0  0  0  0  0  0  0  0  0  0
  1  2  2  0  0  0  0
  1  6  1  0  0  0  0
  2  3  1  0  0  0  0
  3 11  1  0  0  0  0
  3  4  2  0  0  0  0
  4  9  1  0  0  0  0
  5  4  1  0  0  0  0
  5 10  1  0  0  0  0
  6  5  2  0  0  0  0
  7  1  1  0  0  0  0
  8  2  1  0  0  0  0
 12 11  2  0  0  0  0
 13 12  1  0  0  0  0
 14  6  1  0  0  0  0
M  END
