Coordinates from ORCA-job Ph-N2-X-Cl-B3LYPG-6-31G_dp-scan-d09-49-n400
 OpenBabel08281821073D

 14 14  0  0  0  0  0  0  0  0999 V2000
   -1.2564   -1.1135   -1.5791 C   0  0  0  0  0  0  0  0  0  0  0  0
    0.0847   -0.7756   -1.4107 C   0  0  0  0  0  0  0  0  0  0  0  0
    0.4148    0.1079   -0.3762 C   0  0  0  0  0  0  0  0  0  0  0  0
   -0.5489    0.6367    0.4858 C   0  0  0  0  0  0  0  0  0  0  0  0
   -1.8866    0.3118    0.2812 C   0  0  0  0  0  0  0  0  0  0  0  0
   -2.2380   -0.5686   -0.7461 C   0  0  0  0  0  0  0  0  0  0  0  0
   -1.5356   -1.8005   -2.3718 H   0  0  0  0  0  0  0  0  0  0  0  0
    0.8568   -1.1727   -2.0562 H   0  0  0  0  0  0  0  0  0  0  0  0
   -0.2295    1.3084    1.2736 H   0  0  0  0  0  0  0  0  0  0  0  0
   -2.6496    0.7340    0.9268 H   0  0  0  0  0  0  0  0  0  0  0  0
    1.7583    0.4568   -0.1029 N   0  0  0  0  0  0  0  0  0  0  0  0
    2.7216    0.7471   -0.7101 N   0  0  0  0  0  0  0  0  0  0  0  0
    2.4968    0.9039   -2.7779 Cl  0  0  0  0  0  0  0  0  0  0  0  0
   -3.2797   -0.8358   -0.8952 H   0  0  0  0  0  0  0  0  0  0  0  0
  1  2  2  0  0  0  0
  1  6  1  0  0  0  0
  2  3  1  0  0  0  0
  3 11  1  0  0  0  0
  3  4  2  0  0  0  0
  4  9  1  0  0  0  0
  5  4  1  0  0  0  0
  5 10  1  0  0  0  0
  6  5  2  0  0  0  0
  7  1  1  0  0  0  0
  8  2  1  0  0  0  0
 12 11  2  0  0  0  0
 13 12  1  0  0  0  0
 14  6  1  0  0  0  0
M  END
