Coordinates from ORCA-job Ph-N2-X-Cl-B3LYPG-6-31G_dp-scan-d09-49-n400
 OpenBabel08281821073D

 14 13  0  0  0  0  0  0  0  0999 V2000
   -1.4306   -1.6213   -1.2738 C   0  0  0  0  0  0  0  0  0  0  0  0
   -0.0765   -1.4299   -1.4458 C   0  0  0  0  0  0  0  0  0  0  0  0
    0.4332   -0.2046   -0.9448 C   0  0  0  0  0  0  0  0  0  0  0  0
   -0.2444    0.8425   -0.2984 C   0  0  0  0  0  0  0  0  0  0  0  0
   -1.6226    0.5581   -0.1683 C   0  0  0  0  0  0  0  0  0  0  0  0
   -2.1992   -0.6217   -0.6327 C   0  0  0  0  0  0  0  0  0  0  0  0
   -1.9018   -2.5323   -1.6273 H   0  0  0  0  0  0  0  0  0  0  0  0
    0.5591   -2.1654   -1.9295 H   0  0  0  0  0  0  0  0  0  0  0  0
    0.6109    2.1528    0.1908 H   0  0  0  0  0  0  0  0  0  0  0  0
   -2.2639    1.2920    0.3168 H   0  0  0  0  0  0  0  0  0  0  0  0
    1.7937    0.0260   -1.0967 N   0  0  0  0  0  0  0  0  0  0  0  0
    2.8772    0.2846   -1.1808 N   0  0  0  0  0  0  0  0  0  0  0  0
    1.4399    3.1492    0.5352 Cl  0  0  0  0  0  0  0  0  0  0  0  0
   -3.2663   -0.7898   -0.5035 H   0  0  0  0  0  0  0  0  0  0  0  0
  1  6  1  0  0  0  0
  2  1  2  0  0  0  0
  2  3  1  0  0  0  0
  3  4  2  0  0  0  0
  4  5  1  0  0  0  0
  5 10  1  0  0  0  0
  6 14  1  0  0  0  0
  6  5  2  0  0  0  0
  7  1  1  0  0  0  0
  8  2  1  0  0  0  0
  9 13  1  0  0  0  0
 11  3  1  0  0  0  0
 12 11  1  0  0  0  0
M  RAD  3   4   2  11   2  12   3
M  END
