Coordinates from ORCA-job Ph-N2-X-Cl-B3LYPG-6-31G_dp-scan-d09-49-n400
 OpenBabel08281821073D

 14 13  0  0  0  0  0  0  0  0999 V2000
   -1.4275   -1.5788   -1.2555 C   0  0  0  0  0  0  0  0  0  0  0  0
   -0.0625   -1.3712   -1.4195 C   0  0  0  0  0  0  0  0  0  0  0  0
    0.4738   -0.1736   -0.9338 C   0  0  0  0  0  0  0  0  0  0  0  0
   -0.2788    0.8194   -0.2974 C   0  0  0  0  0  0  0  0  0  0  0  0
   -1.6440    0.5827   -0.1482 C   0  0  0  0  0  0  0  0  0  0  0  0
   -2.2117   -0.6046   -0.6223 C   0  0  0  0  0  0  0  0  0  0  0  0
   -1.8829   -2.4946   -1.6176 H   0  0  0  0  0  0  0  0  0  0  0  0
    0.5769   -2.1020   -1.9030 H   0  0  0  0  0  0  0  0  0  0  0  0
    0.3051    1.7154    0.0323 H   0  0  0  0  0  0  0  0  0  0  0  0
   -2.2682    1.3256    0.3390 H   0  0  0  0  0  0  0  0  0  0  0  0
    1.8584    0.0560   -1.0904 N   0  0  0  0  0  0  0  0  0  0  0  0
    2.6569    0.8649   -0.8465 N   0  0  0  0  0  0  0  0  0  0  0  0
    1.8901    2.6784    0.2021 Cl  0  0  0  0  0  0  0  0  0  0  0  0
   -3.2770   -0.7776   -0.4979 H   0  0  0  0  0  0  0  0  0  0  0  0
  1  6  1  0  0  0  0
  2  1  2  0  0  0  0
  2  3  1  0  0  0  0
  3  4  2  0  0  0  0
  4  5  1  0  0  0  0
  4  9  1  0  0  0  0
  5 10  1  0  0  0  0
  6 14  1  0  0  0  0
  6  5  2  0  0  0  0
  7  1  1  0  0  0  0
  8  2  1  0  0  0  0
 11  3  1  0  0  0  0
 11 12  2  0  0  0  0
M  RAD  2  12   2  13   2
M  END
