Coordinates from ORCA-job Ph-N2-X-Cl-B3LYPG-6-31G_dp-scan-d09-49-n400
 OpenBabel08281821073D

 14 14  0  0  0  0  0  0  0  0999 V2000
   -1.3435   -1.3462   -1.4849 C   0  0  0  0  0  0  0  0  0  0  0  0
    0.0311   -1.1683   -1.3419 C   0  0  0  0  0  0  0  0  0  0  0  0
    0.4871   -0.1446   -0.5090 C   0  0  0  0  0  0  0  0  0  0  0  0
   -0.3851    0.6628    0.2257 C   0  0  0  0  0  0  0  0  0  0  0  0
   -1.7558    0.4555    0.0792 C   0  0  0  0  0  0  0  0  0  0  0  0
   -2.2359   -0.5388   -0.7763 C   0  0  0  0  0  0  0  0  0  0  0  0
   -1.7153   -2.1225   -2.1464 H   0  0  0  0  0  0  0  0  0  0  0  0
    0.7408   -1.7910   -1.8748 H   0  0  0  0  0  0  0  0  0  0  0  0
   -0.0031    1.4245    0.8964 H   0  0  0  0  0  0  0  0  0  0  0  0
   -2.4486    1.0782    0.6361 H   0  0  0  0  0  0  0  0  0  0  0  0
    1.8923    0.0022   -0.3385 N   0  0  0  0  0  0  0  0  0  0  0  0
    2.7094    0.7769   -0.6726 N   0  0  0  0  0  0  0  0  0  0  0  0
    2.0409    2.3402   -1.8665 Cl  0  0  0  0  0  0  0  0  0  0  0  0
   -3.3057   -0.6890   -0.8852 H   0  0  0  0  0  0  0  0  0  0  0  0
  1  2  2  0  0  0  0
  1  6  1  0  0  0  0
  2  3  1  0  0  0  0
  3 11  1  0  0  0  0
  3  4  2  0  0  0  0
  4  9  1  0  0  0  0
  5  4  1  0  0  0  0
  5 10  1  0  0  0  0
  6  5  2  0  0  0  0
  7  1  1  0  0  0  0
  8  2  1  0  0  0  0
 12 11  2  0  0  0  0
 13 12  1  0  0  0  0
 14  6  1  0  0  0  0
M  END
