Coordinates from ORCA-job Ph-N2-X-Cl-B3LYPG-6-31G_dp-scan-d09-49-n400
 OpenBabel08281821073D

 14 14  0  0  0  0  0  0  0  0999 V2000
   -1.2695   -1.2070   -1.5451 C   0  0  0  0  0  0  0  0  0  0  0  0
    0.0891   -0.9618   -1.3547 C   0  0  0  0  0  0  0  0  0  0  0  0
    0.4605   -0.0345   -0.3790 C   0  0  0  0  0  0  0  0  0  0  0  0
   -0.4735    0.6337    0.4108 C   0  0  0  0  0  0  0  0  0  0  0  0
   -1.8278    0.3893    0.1901 C   0  0  0  0  0  0  0  0  0  0  0  0
   -2.2253   -0.5345   -0.7794 C   0  0  0  0  0  0  0  0  0  0  0  0
   -1.5804   -1.9214   -2.3012 H   0  0  0  0  0  0  0  0  0  0  0  0
    0.8446   -1.4636   -1.9475 H   0  0  0  0  0  0  0  0  0  0  0  0
   -0.1313    1.3501    1.1486 H   0  0  0  0  0  0  0  0  0  0  0  0
   -2.5698    0.9182    0.7794 H   0  0  0  0  0  0  0  0  0  0  0  0
    1.8410    0.1985   -0.1202 N   0  0  0  0  0  0  0  0  0  0  0  0
    2.7039    0.7293   -0.7204 N   0  0  0  0  0  0  0  0  0  0  0  0
    2.1282    1.5748   -2.5013 Cl  0  0  0  0  0  0  0  0  0  0  0  0
   -3.2810   -0.7310   -0.9388 H   0  0  0  0  0  0  0  0  0  0  0  0
  1  2  2  0  0  0  0
  1  6  1  0  0  0  0
  2  3  1  0  0  0  0
  3 11  1  0  0  0  0
  3  4  2  0  0  0  0
  4  9  1  0  0  0  0
  5  4  1  0  0  0  0
  5 10  1  0  0  0  0
  6  5  2  0  0  0  0
  7  1  1  0  0  0  0
  8  2  1  0  0  0  0
 12 11  1  0  0  0  0
 13 12  1  0  0  0  0
 14  6  1  0  0  0  0
M  RAD  2  11   2  12   2
M  END
