Coordinates from ORCA-job Ph-N2-X-Cl-B3LYPG-6-31G_dp-scan-d09-49-n400
 OpenBabel08281821073D

 14 14  0  0  0  0  0  0  0  0999 V2000
   -1.4230   -1.5798   -1.2557 C   0  0  0  0  0  0  0  0  0  0  0  0
   -0.0610   -1.3427   -1.4059 C   0  0  0  0  0  0  0  0  0  0  0  0
    0.4656   -0.1401   -0.9172 C   0  0  0  0  0  0  0  0  0  0  0  0
   -0.3239    0.8312   -0.2853 C   0  0  0  0  0  0  0  0  0  0  0  0
   -1.6849    0.5699   -0.1477 C   0  0  0  0  0  0  0  0  0  0  0  0
   -2.2309   -0.6248   -0.6277 C   0  0  0  0  0  0  0  0  0  0  0  0
   -1.8551   -2.5039   -1.6250 H   0  0  0  0  0  0  0  0  0  0  0  0
    0.5950   -2.0605   -1.8861 H   0  0  0  0  0  0  0  0  0  0  0  0
    0.1740    1.7374    0.0638 H   0  0  0  0  0  0  0  0  0  0  0  0
   -2.3223    1.3031    0.3366 H   0  0  0  0  0  0  0  0  0  0  0  0
    1.8495    0.0618   -1.0884 N   0  0  0  0  0  0  0  0  0  0  0  0
    2.6948    0.8363   -0.8682 N   0  0  0  0  0  0  0  0  0  0  0  0
    2.1248    2.6672    0.1595 Cl  0  0  0  0  0  0  0  0  0  0  0  0
   -3.2939   -0.8152   -0.5115 H   0  0  0  0  0  0  0  0  0  0  0  0
  1  6  1  0  0  0  0
  2  1  2  0  0  0  0
  2  3  1  0  0  0  0
  3  4  2  0  0  0  0
  4  5  1  0  0  0  0
  4  9  1  0  0  0  0
  5 10  1  0  0  0  0
  6 14  1  0  0  0  0
  6  5  2  0  0  0  0
  7  1  1  0  0  0  0
  8  2  1  0  0  0  0
 11  3  1  0  0  0  0
 11 12  2  0  0  0  0
 12 13  1  0  0  0  0
M  END
