Coordinates from ORCA-job Ph-N2-X-Cl-B3LYPG-6-31G_dp-scan-d09-49-n400
 OpenBabel08281821073D

 14 14  0  0  0  0  0  0  0  0999 V2000
   -1.4204   -1.5786   -1.2655 C   0  0  0  0  0  0  0  0  0  0  0  0
   -0.0609   -1.3163   -1.3918 C   0  0  0  0  0  0  0  0  0  0  0  0
    0.4527   -0.1119   -0.8885 C   0  0  0  0  0  0  0  0  0  0  0  0
   -0.3676    0.8370   -0.2574 C   0  0  0  0  0  0  0  0  0  0  0  0
   -1.7258    0.5513   -0.1408 C   0  0  0  0  0  0  0  0  0  0  0  0
   -2.2514   -0.6445   -0.6393 C   0  0  0  0  0  0  0  0  0  0  0  0
   -1.8304   -2.5061   -1.6512 H   0  0  0  0  0  0  0  0  0  0  0  0
    0.6124   -2.0197   -1.8693 H   0  0  0  0  0  0  0  0  0  0  0  0
    0.0581    1.7570    0.1206 H   0  0  0  0  0  0  0  0  0  0  0  0
   -2.3779    1.2711    0.3436 H   0  0  0  0  0  0  0  0  0  0  0  0
    1.8385    0.0655   -1.0600 N   0  0  0  0  0  0  0  0  0  0  0  0
    2.7358    0.7928   -0.8844 N   0  0  0  0  0  0  0  0  0  0  0  0
    2.3585    2.6923    0.0633 Cl  0  0  0  0  0  0  0  0  0  0  0  0
   -3.3130   -0.8499   -0.5382 H   0  0  0  0  0  0  0  0  0  0  0  0
  1  6  1  0  0  0  0
  2  1  2  0  0  0  0
  2  3  1  0  0  0  0
  3  4  2  0  0  0  0
  4  5  1  0  0  0  0
  4  9  1  0  0  0  0
  5 10  1  0  0  0  0
  6 14  1  0  0  0  0
  6  5  2  0  0  0  0
  7  1  1  0  0  0  0
  8  2  1  0  0  0  0
 11  3  1  0  0  0  0
 11 12  2  0  0  0  0
 12 13  1  0  0  0  0
M  END
