Coordinates from ORCA-job Ph-N2-X-Cl-B3LYPG-6-31G_dp-scan-d09-49-n400
 OpenBabel08281821073D

 14 14  0  0  0  0  0  0  0  0999 V2000
   -1.2791   -1.2284   -1.5371 C   0  0  0  0  0  0  0  0  0  0  0  0
    0.0828   -0.9990   -1.3491 C   0  0  0  0  0  0  0  0  0  0  0  0
    0.4669   -0.0584   -0.3919 C   0  0  0  0  0  0  0  0  0  0  0  0
   -0.4577    0.6356    0.3871 C   0  0  0  0  0  0  0  0  0  0  0  0
   -1.8150    0.4020    0.1722 C   0  0  0  0  0  0  0  0  0  0  0  0
   -2.2256   -0.5317   -0.7821 C   0  0  0  0  0  0  0  0  0  0  0  0
   -1.5991   -1.9509   -2.2816 H   0  0  0  0  0  0  0  0  0  0  0  0
    0.8316   -1.5225   -1.9320 H   0  0  0  0  0  0  0  0  0  0  0  0
   -0.1096    1.3596    1.1151 H   0  0  0  0  0  0  0  0  0  0  0  0
   -2.5496    0.9491    0.7541 H   0  0  0  0  0  0  0  0  0  0  0  0
    1.8532    0.1566   -0.1423 N   0  0  0  0  0  0  0  0  0  0  0  0
    2.7022    0.7375   -0.7144 N   0  0  0  0  0  0  0  0  0  0  0  0
    2.0917    1.7075   -2.4192 Cl  0  0  0  0  0  0  0  0  0  0  0  0
   -3.2839   -0.7170   -0.9377 H   0  0  0  0  0  0  0  0  0  0  0  0
  1  2  2  0  0  0  0
  1  6  1  0  0  0  0
  2  3  1  0  0  0  0
  3 11  1  0  0  0  0
  3  4  2  0  0  0  0
  4  9  1  0  0  0  0
  5  4  1  0  0  0  0
  5 10  1  0  0  0  0
  6  5  2  0  0  0  0
  7  1  1  0  0  0  0
  8  2  1  0  0  0  0
 12 11  1  0  0  0  0
 13 12  1  0  0  0  0
 14  6  1  0  0  0  0
M  RAD  2  11   2  12   2
M  END
