Coordinates from ORCA-job Ph-N2-X-Cl-B3LYPG-6-31G_dp-scan-d09-49-n400
 OpenBabel08281821073D

 14 13  0  0  0  0  0  0  0  0999 V2000
   -1.4302   -1.5805   -1.2556 C   0  0  0  0  0  0  0  0  0  0  0  0
   -0.0645   -1.3871   -1.4270 C   0  0  0  0  0  0  0  0  0  0  0  0
    0.4736   -0.1903   -0.9423 C   0  0  0  0  0  0  0  0  0  0  0  0
   -0.2557    0.8154   -0.3043 C   0  0  0  0  0  0  0  0  0  0  0  0
   -1.6235    0.5876   -0.1501 C   0  0  0  0  0  0  0  0  0  0  0  0
   -2.2021   -0.5961   -0.6199 C   0  0  0  0  0  0  0  0  0  0  0  0
   -1.8970   -2.4924   -1.6131 H   0  0  0  0  0  0  0  0  0  0  0  0
    0.5672   -2.1239   -1.9118 H   0  0  0  0  0  0  0  0  0  0  0  0
    0.3812    1.7221    0.0206 H   0  0  0  0  0  0  0  0  0  0  0  0
   -2.2426    1.3348    0.3380 H   0  0  0  0  0  0  0  0  0  0  0  0
    1.8599    0.0551   -1.0917 N   0  0  0  0  0  0  0  0  0  0  0  0
    2.6435    0.8693   -0.8426 N   0  0  0  0  0  0  0  0  0  0  0  0
    1.7673    2.6869    0.2320 Cl  0  0  0  0  0  0  0  0  0  0  0  0
   -3.2684   -0.7606   -0.4909 H   0  0  0  0  0  0  0  0  0  0  0  0
  1  6  1  0  0  0  0
  2  1  2  0  0  0  0
  2  3  1  0  0  0  0
  3  4  2  0  0  0  0
  4  5  1  0  0  0  0
  4  9  1  0  0  0  0
  5 10  1  0  0  0  0
  6 14  1  0  0  0  0
  6  5  2  0  0  0  0
  7  1  1  0  0  0  0
  8  2  1  0  0  0  0
 11  3  1  0  0  0  0
 11 12  2  0  0  0  0
M  RAD  2  12   2  13   2
M  END
