Coordinates from ORCA-job Ph-N2-X-Cl-B3LYPG-6-31G_dp-scan-d09-49-n400
 OpenBabel08281821073D

 14 14  0  0  0  0  0  0  0  0999 V2000
   -1.3110   -1.2891   -1.5124 C   0  0  0  0  0  0  0  0  0  0  0  0
    0.0585   -1.0938   -1.3411 C   0  0  0  0  0  0  0  0  0  0  0  0
    0.4801   -0.1115   -0.4441 C   0  0  0  0  0  0  0  0  0  0  0  0
   -0.4169    0.6458    0.3104 C   0  0  0  0  0  0  0  0  0  0  0  0
   -1.7818    0.4320    0.1239 C   0  0  0  0  0  0  0  0  0  0  0  0
   -2.2296   -0.5307   -0.7835 C   0  0  0  0  0  0  0  0  0  0  0  0
   -1.6581   -2.0374   -2.2182 H   0  0  0  0  0  0  0  0  0  0  0  0
    0.7867   -1.6733   -1.8971 H   0  0  0  0  0  0  0  0  0  0  0  0
   -0.0520    1.3878    1.0123 H   0  0  0  0  0  0  0  0  0  0  0  0
   -2.4945    1.0224    0.6909 H   0  0  0  0  0  0  0  0  0  0  0  0
    1.8785    0.0635   -0.2294 N   0  0  0  0  0  0  0  0  0  0  0  0
    2.7026    0.7641   -0.6908 N   0  0  0  0  0  0  0  0  0  0  0  0
    2.0407    2.0522   -2.1593 Cl  0  0  0  0  0  0  0  0  0  0  0  0
   -3.2945   -0.6919   -0.9205 H   0  0  0  0  0  0  0  0  0  0  0  0
  1  2  2  0  0  0  0
  1  6  1  0  0  0  0
  2  3  1  0  0  0  0
  3 11  1  0  0  0  0
  3  4  2  0  0  0  0
  4  9  1  0  0  0  0
  5  4  1  0  0  0  0
  5 10  1  0  0  0  0
  6  5  2  0  0  0  0
  7  1  1  0  0  0  0
  8  2  1  0  0  0  0
 12 11  2  0  0  0  0
 13 12  1  0  0  0  0
 14  6  1  0  0  0  0
M  END
