Coordinates from ORCA-job Ph-N2-X-Cl-B3LYPG-6-31G_dp-scan-d09-49-n400
 OpenBabel08281821073D

 14 14  0  0  0  0  0  0  0  0999 V2000
   -1.4229   -1.5799   -1.2558 C   0  0  0  0  0  0  0  0  0  0  0  0
   -0.0611   -1.3420   -1.4055 C   0  0  0  0  0  0  0  0  0  0  0  0
    0.4650   -0.1392   -0.9167 C   0  0  0  0  0  0  0  0  0  0  0  0
   -0.3254    0.8316   -0.2849 C   0  0  0  0  0  0  0  0  0  0  0  0
   -1.6863    0.5695   -0.1477 C   0  0  0  0  0  0  0  0  0  0  0  0
   -2.2316   -0.6255   -0.6279 C   0  0  0  0  0  0  0  0  0  0  0  0
   -1.8543   -2.5043   -1.6253 H   0  0  0  0  0  0  0  0  0  0  0  0
    0.5955   -2.0594   -1.8856 H   0  0  0  0  0  0  0  0  0  0  0  0
    0.1706    1.7381    0.0647 H   0  0  0  0  0  0  0  0  0  0  0  0
   -2.3242    1.3022    0.3365 H   0  0  0  0  0  0  0  0  0  0  0  0
    1.8491    0.0623   -1.0881 N   0  0  0  0  0  0  0  0  0  0  0  0
    2.6960    0.8353   -0.8689 N   0  0  0  0  0  0  0  0  0  0  0  0
    2.1327    2.6677    0.1583 Cl  0  0  0  0  0  0  0  0  0  0  0  0
   -3.2945   -0.8165   -0.5119 H   0  0  0  0  0  0  0  0  0  0  0  0
  1  6  1  0  0  0  0
  2  1  2  0  0  0  0
  2  3  1  0  0  0  0
  3  4  2  0  0  0  0
  4  5  1  0  0  0  0
  4  9  1  0  0  0  0
  5 10  1  0  0  0  0
  6 14  1  0  0  0  0
  6  5  2  0  0  0  0
  7  1  1  0  0  0  0
  8  2  1  0  0  0  0
 11  3  1  0  0  0  0
 11 12  2  0  0  0  0
 12 13  1  0  0  0  0
M  END
