Coordinates from ORCA-job Ph-N2-X-Cl-B3LYPG-6-31G_dp-scan-d09-49-n400
 OpenBabel08281821073D

 14 13  0  0  0  0  0  0  0  0999 V2000
   -1.4367   -1.5918   -1.2601 C   0  0  0  0  0  0  0  0  0  0  0  0
   -0.0721   -1.4109   -1.4374 C   0  0  0  0  0  0  0  0  0  0  0  0
    0.4571   -0.2102   -0.9486 C   0  0  0  0  0  0  0  0  0  0  0  0
   -0.2342    0.8138   -0.3089 C   0  0  0  0  0  0  0  0  0  0  0  0
   -1.6073    0.5837   -0.1551 C   0  0  0  0  0  0  0  0  0  0  0  0
   -2.1961   -0.5956   -0.6208 C   0  0  0  0  0  0  0  0  0  0  0  0
   -1.9146   -2.4995   -1.6138 H   0  0  0  0  0  0  0  0  0  0  0  0
    0.5547   -2.1516   -1.9233 H   0  0  0  0  0  0  0  0  0  0  0  0
    0.5027    1.8009    0.0367 H   0  0  0  0  0  0  0  0  0  0  0  0
   -2.2266    1.3319    0.3337 H   0  0  0  0  0  0  0  0  0  0  0  0
    1.8479    0.0562   -1.0882 N   0  0  0  0  0  0  0  0  0  0  0  0
    2.6639    0.8238   -0.8687 N   0  0  0  0  0  0  0  0  0  0  0  0
    1.6335    2.7416    0.2832 Cl  0  0  0  0  0  0  0  0  0  0  0  0
   -3.2636   -0.7524   -0.4877 H   0  0  0  0  0  0  0  0  0  0  0  0
  1  6  1  0  0  0  0
  2  1  2  0  0  0  0
  2  3  1  0  0  0  0
  3  4  2  0  0  0  0
  4  5  1  0  0  0  0
  4  9  1  0  0  0  0
  5 10  1  0  0  0  0
  6 14  1  0  0  0  0
  6  5  2  0  0  0  0
  7  1  1  0  0  0  0
  8  2  1  0  0  0  0
 11  3  1  0  0  0  0
 11 12  2  0  0  0  0
M  RAD  2  12   2  13   2
M  END
