Coordinates from ORCA-job Ph-N2-X-Cl-B3LYPG-6-31G_dp-scan-d09-49-n400
 OpenBabel08281821073D

 14 14  0  0  0  0  0  0  0  0999 V2000
   -1.3238   -1.3118   -1.5021 C   0  0  0  0  0  0  0  0  0  0  0  0
    0.0480   -1.1253   -1.3404 C   0  0  0  0  0  0  0  0  0  0  0  0
    0.4836   -0.1266   -0.4683 C   0  0  0  0  0  0  0  0  0  0  0  0
   -0.4032    0.6517    0.2780 C   0  0  0  0  0  0  0  0  0  0  0  0
   -1.7706    0.4419    0.1061 C   0  0  0  0  0  0  0  0  0  0  0  0
   -2.2318   -0.5328   -0.7817 C   0  0  0  0  0  0  0  0  0  0  0  0
   -1.6810   -2.0707   -2.1913 H   0  0  0  0  0  0  0  0  0  0  0  0
    0.7685   -1.7232   -1.8869 H   0  0  0  0  0  0  0  0  0  0  0  0
   -0.0316    1.4010    0.9686 H   0  0  0  0  0  0  0  0  0  0  0  0
   -2.4752    1.0459    0.6688 H   0  0  0  0  0  0  0  0  0  0  0  0
    1.8852    0.0361   -0.2700 N   0  0  0  0  0  0  0  0  0  0  0  0
    2.7044    0.7712   -0.6823 N   0  0  0  0  0  0  0  0  0  0  0  0
    2.0349    2.1709   -2.0485 Cl  0  0  0  0  0  0  0  0  0  0  0  0
   -3.2988   -0.6882   -0.9088 H   0  0  0  0  0  0  0  0  0  0  0  0
  1  2  2  0  0  0  0
  1  6  1  0  0  0  0
  2  3  1  0  0  0  0
  3 11  1  0  0  0  0
  3  4  2  0  0  0  0
  4  9  1  0  0  0  0
  5  4  1  0  0  0  0
  5 10  1  0  0  0  0
  6  5  2  0  0  0  0
  7  1  1  0  0  0  0
  8  2  1  0  0  0  0
 12 11  2  0  0  0  0
 13 12  1  0  0  0  0
 14  6  1  0  0  0  0
M  END
