Coordinates from ORCA-job Ph-N2-X-Cl-B3LYPG-6-31G_dp-scan-d09-49-n400
 OpenBabel08281821073D

 14 13  0  0  0  0  0  0  0  0999 V2000
   -1.4443   -1.6459   -1.2831 C   0  0  0  0  0  0  0  0  0  0  0  0
   -0.0906   -1.4675   -1.4618 C   0  0  0  0  0  0  0  0  0  0  0  0
    0.4307   -0.2431   -0.9641 C   0  0  0  0  0  0  0  0  0  0  0  0
   -0.2229    0.8195   -0.3150 C   0  0  0  0  0  0  0  0  0  0  0  0
   -1.6067    0.5386   -0.1814 C   0  0  0  0  0  0  0  0  0  0  0  0
   -2.1985   -0.6351   -0.6394 C   0  0  0  0  0  0  0  0  0  0  0  0
   -1.9272   -2.5527   -1.6319 H   0  0  0  0  0  0  0  0  0  0  0  0
    0.5363   -2.2099   -1.9470 H   0  0  0  0  0  0  0  0  0  0  0  0
    0.6963    2.3592    0.2787 H   0  0  0  0  0  0  0  0  0  0  0  0
   -2.2436    1.2765    0.3048 H   0  0  0  0  0  0  0  0  0  0  0  0
    1.7923   -0.0314   -1.1255 N   0  0  0  0  0  0  0  0  0  0  0  0
    2.8820    0.1994   -1.2245 N   0  0  0  0  0  0  0  0  0  0  0  0
    1.3716    3.3243    0.6356 Cl  0  0  0  0  0  0  0  0  0  0  0  0
   -3.2668   -0.7919   -0.5040 H   0  0  0  0  0  0  0  0  0  0  0  0
  1  6  1  0  0  0  0
  2  1  2  0  0  0  0
  2  3  1  0  0  0  0
  3  4  2  0  0  0  0
  4  5  1  0  0  0  0
  5 10  1  0  0  0  0
  6 14  1  0  0  0  0
  6  5  2  0  0  0  0
  7  1  1  0  0  0  0
  8  2  1  0  0  0  0
  9 13  1  0  0  0  0
 11  3  1  0  0  0  0
 12 11  1  0  0  0  0
M  RAD  3   4   2  11   2  12   3
M  END
