Coordinates from ORCA-job Ph-N2-X-Cl-B3LYPG-6-31G_dp-scan-d09-49-n400
 OpenBabel08281821073D

 14 14  0  0  0  0  0  0  0  0999 V2000
   -1.2900   -1.2505   -1.5285 C   0  0  0  0  0  0  0  0  0  0  0  0
    0.0749   -1.0355   -1.3450 C   0  0  0  0  0  0  0  0  0  0  0  0
    0.4725   -0.0804   -0.4084 C   0  0  0  0  0  0  0  0  0  0  0  0
   -0.4419    0.6384    0.3607 C   0  0  0  0  0  0  0  0  0  0  0  0
   -1.8022    0.4139    0.1543 C   0  0  0  0  0  0  0  0  0  0  0  0
   -2.2265   -0.5301   -0.7837 C   0  0  0  0  0  0  0  0  0  0  0  0
   -1.6199   -1.9818   -2.2601 H   0  0  0  0  0  0  0  0  0  0  0  0
    0.8163   -1.5805   -1.9179 H   0  0  0  0  0  0  0  0  0  0  0  0
   -0.0876    1.3693    1.0791 H   0  0  0  0  0  0  0  0  0  0  0  0
   -2.5288    0.9781    0.7298 H   0  0  0  0  0  0  0  0  0  0  0  0
    1.8639    0.1187   -0.1699 N   0  0  0  0  0  0  0  0  0  0  0  0
    2.7012    0.7479   -0.7061 N   0  0  0  0  0  0  0  0  0  0  0  0
    2.0642    1.8377   -2.3293 Cl  0  0  0  0  0  0  0  0  0  0  0  0
   -3.2873   -0.7051   -0.9339 H   0  0  0  0  0  0  0  0  0  0  0  0
  1  2  2  0  0  0  0
  1  6  1  0  0  0  0
  2  3  1  0  0  0  0
  3 11  1  0  0  0  0
  3  4  2  0  0  0  0
  4  9  1  0  0  0  0
  5  4  1  0  0  0  0
  5 10  1  0  0  0  0
  6  5  2  0  0  0  0
  7  1  1  0  0  0  0
  8  2  1  0  0  0  0
 12 11  2  0  0  0  0
 13 12  1  0  0  0  0
 14  6  1  0  0  0  0
M  END
