Coordinates from ORCA-job Ph-N2-X-Cl-B3LYPG-6-31G_dp-scan-d09-49-n400
 OpenBabel08281821073D

 14 13  0  0  0  0  0  0  0  0999 V2000
   -1.4262   -1.5788   -1.2553 C   0  0  0  0  0  0  0  0  0  0  0  0
   -0.0619   -1.3633   -1.4159 C   0  0  0  0  0  0  0  0  0  0  0  0
    0.4723   -0.1645   -0.9297 C   0  0  0  0  0  0  0  0  0  0  0  0
   -0.2910    0.8226   -0.2946 C   0  0  0  0  0  0  0  0  0  0  0  0
   -1.6549    0.5797   -0.1481 C   0  0  0  0  0  0  0  0  0  0  0  0
   -2.2168   -0.6098   -0.6235 C   0  0  0  0  0  0  0  0  0  0  0  0
   -1.8753   -2.4970   -1.6191 H   0  0  0  0  0  0  0  0  0  0  0  0
    0.5819   -2.0907   -1.8984 H   0  0  0  0  0  0  0  0  0  0  0  0
    0.2683    1.7192    0.0393 H   0  0  0  0  0  0  0  0  0  0  0  0
   -2.2825    1.3202    0.3383 H   0  0  0  0  0  0  0  0  0  0  0  0
    1.8565    0.0572   -1.0905 N   0  0  0  0  0  0  0  0  0  0  0  0
    2.6663    0.8590   -0.8514 N   0  0  0  0  0  0  0  0  0  0  0  0
    1.9534    2.6737    0.1911 Cl  0  0  0  0  0  0  0  0  0  0  0  0
   -3.2814   -0.7875   -0.5011 H   0  0  0  0  0  0  0  0  0  0  0  0
  1  6  1  0  0  0  0
  2  1  2  0  0  0  0
  2  3  1  0  0  0  0
  3  4  2  0  0  0  0
  4  5  1  0  0  0  0
  4  9  1  0  0  0  0
  5 10  1  0  0  0  0
  6 14  1  0  0  0  0
  6  5  2  0  0  0  0
  7  1  1  0  0  0  0
  8  2  1  0  0  0  0
 11  3  1  0  0  0  0
 11 12  2  0  0  0  0
M  RAD  2  12   2  13   2
M  END
