Coordinates from ORCA-job Ph-N2-X-Cl-B3LYPG-6-31G_dp-scan-d09-49-n400
 OpenBabel08281821073D

 14 13  0  0  0  0  0  0  0  0999 V2000
   -1.4668   -1.6908   -1.2968 C   0  0  0  0  0  0  0  0  0  0  0  0
   -0.1133   -1.5311   -1.4868 C   0  0  0  0  0  0  0  0  0  0  0  0
    0.4231   -0.3073   -0.9984 C   0  0  0  0  0  0  0  0  0  0  0  0
   -0.1981    0.7758   -0.3501 C   0  0  0  0  0  0  0  0  0  0  0  0
   -1.5890    0.5043   -0.2087 C   0  0  0  0  0  0  0  0  0  0  0  0
   -2.2010   -0.6631   -0.6530 C   0  0  0  0  0  0  0  0  0  0  0  0
   -1.9655   -2.5929   -1.6358 H   0  0  0  0  0  0  0  0  0  0  0  0
    0.5004   -2.2847   -1.9726 H   0  0  0  0  0  0  0  0  0  0  0  0
    0.8543    2.7846    0.4690 H   0  0  0  0  0  0  0  0  0  0  0  0
   -2.2189    1.2504    0.2763 H   0  0  0  0  0  0  0  0  0  0  0  0
    1.7866   -0.1149   -1.1716 N   0  0  0  0  0  0  0  0  0  0  0  0
    2.8803    0.0970   -1.2827 N   0  0  0  0  0  0  0  0  0  0  0  0
    1.2870    3.5179    0.7604 Cl  0  0  0  0  0  0  0  0  0  0  0  0
   -3.2706   -0.8052   -0.5080 H   0  0  0  0  0  0  0  0  0  0  0  0
  1  6  1  0  0  0  0
  2  1  2  0  0  0  0
  2  3  1  0  0  0  0
  3  4  2  0  0  0  0
  4  5  1  0  0  0  0
  5 10  1  0  0  0  0
  6 14  1  0  0  0  0
  6  5  2  0  0  0  0
  7  1  1  0  0  0  0
  8  2  1  0  0  0  0
  9 13  1  0  0  0  0
 11  3  1  0  0  0  0
 12 11  1  0  0  0  0
M  RAD  3   4   2  11   2  12   3
M  END
