Coordinates from ORCA-job Ph-N2-X-Cl-B3LYPG-6-31G_dp-scan-d09-49-n400
 OpenBabel08281821073D

 14 13  0  0  0  0  0  0  0  0999 V2000
   -1.4323   -1.5832   -1.2567 C   0  0  0  0  0  0  0  0  0  0  0  0
   -0.0666   -1.3966   -1.4315 C   0  0  0  0  0  0  0  0  0  0  0  0
    0.4700   -0.1993   -0.9460 C   0  0  0  0  0  0  0  0  0  0  0  0
   -0.2440    0.8140   -0.3070 C   0  0  0  0  0  0  0  0  0  0  0  0
   -1.6137    0.5882   -0.1515 C   0  0  0  0  0  0  0  0  0  0  0  0
   -2.1978   -0.5934   -0.6193 C   0  0  0  0  0  0  0  0  0  0  0  0
   -1.9049   -2.4929   -1.6122 H   0  0  0  0  0  0  0  0  0  0  0  0
    0.5617   -2.1360   -1.9170 H   0  0  0  0  0  0  0  0  0  0  0  0
    0.4284    1.7401    0.0206 H   0  0  0  0  0  0  0  0  0  0  0  0
   -2.2315    1.3367    0.3371 H   0  0  0  0  0  0  0  0  0  0  0  0
    1.8580    0.0549   -1.0910 N   0  0  0  0  0  0  0  0  0  0  0  0
    2.6434    0.8613   -0.8455 N   0  0  0  0  0  0  0  0  0  0  0  0
    1.7028    2.7001    0.2494 Cl  0  0  0  0  0  0  0  0  0  0  0  0
   -3.2646   -0.7537   -0.4881 H   0  0  0  0  0  0  0  0  0  0  0  0
  1  6  1  0  0  0  0
  2  1  2  0  0  0  0
  2  3  1  0  0  0  0
  3  4  2  0  0  0  0
  4  5  1  0  0  0  0
  4  9  1  0  0  0  0
  5 10  1  0  0  0  0
  6 14  1  0  0  0  0
  6  5  2  0  0  0  0
  7  1  1  0  0  0  0
  8  2  1  0  0  0  0
 11  3  1  0  0  0  0
 11 12  2  0  0  0  0
M  RAD  2  12   2  13   2
M  END
