Coordinates from ORCA-job Ph-N2-X-Cl-B3LYPG-6-31G_dp-scan-d09-49-n400
 OpenBabel08281821073D

 14 14  0  0  0  0  0  0  0  0999 V2000
   -1.2544   -1.1388   -1.5696 C   0  0  0  0  0  0  0  0  0  0  0  0
    0.0921   -0.8292   -1.3899 C   0  0  0  0  0  0  0  0  0  0  0  0
    0.4303    0.0641   -0.3681 C   0  0  0  0  0  0  0  0  0  0  0  0
   -0.5285    0.6342    0.4703 C   0  0  0  0  0  0  0  0  0  0  0  0
   -1.8715    0.3369    0.2543 C   0  0  0  0  0  0  0  0  0  0  0  0
   -2.2324   -0.5556   -0.7588 C   0  0  0  0  0  0  0  0  0  0  0  0
   -1.5402   -1.8326   -2.3540 H   0  0  0  0  0  0  0  0  0  0  0  0
    0.8622   -1.2566   -2.0190 H   0  0  0  0  0  0  0  0  0  0  0  0
   -0.2031    1.3189    1.2441 H   0  0  0  0  0  0  0  0  0  0  0  0
   -2.6317    0.7920    0.8806 H   0  0  0  0  0  0  0  0  0  0  0  0
    1.7854    0.3754   -0.0922 N   0  0  0  0  0  0  0  0  0  0  0  0
    2.7168    0.7293   -0.7178 N   0  0  0  0  0  0  0  0  0  0  0  0
    2.3622    1.1025   -2.7234 Cl  0  0  0  0  0  0  0  0  0  0  0  0
   -3.2784   -0.8006   -0.9154 H   0  0  0  0  0  0  0  0  0  0  0  0
  1  2  2  0  0  0  0
  1  6  1  0  0  0  0
  2  3  1  0  0  0  0
  3 11  1  0  0  0  0
  3  4  2  0  0  0  0
  4  9  1  0  0  0  0
  5  4  1  0  0  0  0
  5 10  1  0  0  0  0
  6  5  2  0  0  0  0
  7  1  1  0  0  0  0
  8  2  1  0  0  0  0
 12 11  2  0  0  0  0
 13 12  1  0  0  0  0
 14  6  1  0  0  0  0
M  END
