Coordinates from ORCA-job Ph-N2-X-Cl-B3LYPG-6-31G_dp-scan-d09-49-n400
 OpenBabel08281821073D

 14 14  0  0  0  0  0  0  0  0999 V2000
   -1.2765   -1.2230   -1.5392 C   0  0  0  0  0  0  0  0  0  0  0  0
    0.0845   -0.9897   -1.3503 C   0  0  0  0  0  0  0  0  0  0  0  0
    0.4653   -0.0526   -0.3883 C   0  0  0  0  0  0  0  0  0  0  0  0
   -0.4617    0.6351    0.3933 C   0  0  0  0  0  0  0  0  0  0  0  0
   -1.8182    0.3989    0.1767 C   0  0  0  0  0  0  0  0  0  0  0  0
   -2.2254   -0.5323   -0.7815 C   0  0  0  0  0  0  0  0  0  0  0  0
   -1.5942   -1.9433   -2.2868 H   0  0  0  0  0  0  0  0  0  0  0  0
    0.8351   -1.5077   -1.9357 H   0  0  0  0  0  0  0  0  0  0  0  0
   -0.1150    1.3572    1.1237 H   0  0  0  0  0  0  0  0  0  0  0  0
   -2.5548    0.9415    0.7603 H   0  0  0  0  0  0  0  0  0  0  0  0
    1.8502    0.1667   -0.1362 N   0  0  0  0  0  0  0  0  0  0  0  0
    2.7026    0.7352   -0.7161 N   0  0  0  0  0  0  0  0  0  0  0  0
    2.0998    1.6743   -2.4405 Cl  0  0  0  0  0  0  0  0  0  0  0  0
   -3.2831   -0.7203   -0.9382 H   0  0  0  0  0  0  0  0  0  0  0  0
  1  2  2  0  0  0  0
  1  6  1  0  0  0  0
  2  3  1  0  0  0  0
  3 11  1  0  0  0  0
  3  4  2  0  0  0  0
  4  9  1  0  0  0  0
  5  4  1  0  0  0  0
  5 10  1  0  0  0  0
  6  5  2  0  0  0  0
  7  1  1  0  0  0  0
  8  2  1  0  0  0  0
 12 11  1  0  0  0  0
 13 12  1  0  0  0  0
 14  6  1  0  0  0  0
M  RAD  2  11   2  12   2
M  END
