Coordinates from ORCA-job Ph-N2-X-Cl-B3LYPG-6-31G_dp-scan-d09-49-n400
 OpenBabel08281821073D

 14 13  0  0  0  0  0  0  0  0999 V2000
   -1.4573   -1.6661   -1.2906 C   0  0  0  0  0  0  0  0  0  0  0  0
   -0.1033   -1.5056   -1.4783 C   0  0  0  0  0  0  0  0  0  0  0  0
    0.4349   -0.2849   -0.9858 C   0  0  0  0  0  0  0  0  0  0  0  0
   -0.1925    0.7928   -0.3342 C   0  0  0  0  0  0  0  0  0  0  0  0
   -1.5817    0.5238   -0.1935 C   0  0  0  0  0  0  0  0  0  0  0  0
   -2.1928   -0.6421   -0.6439 C   0  0  0  0  0  0  0  0  0  0  0  0
   -1.9554   -2.5669   -1.6337 H   0  0  0  0  0  0  0  0  0  0  0  0
    0.5112   -2.2572   -1.9658 H   0  0  0  0  0  0  0  0  0  0  0  0
    0.7513    2.5622    0.3704 H   0  0  0  0  0  0  0  0  0  0  0  0
   -2.2095    1.2690    0.2945 H   0  0  0  0  0  0  0  0  0  0  0  0
    1.7981   -0.0930   -1.1573 N   0  0  0  0  0  0  0  0  0  0  0  0
    2.8914    0.1188   -1.2667 N   0  0  0  0  0  0  0  0  0  0  0  0
    1.2767    3.4733    0.7270 Cl  0  0  0  0  0  0  0  0  0  0  0  0
   -3.2625   -0.7841   -0.5008 H   0  0  0  0  0  0  0  0  0  0  0  0
  1  6  1  0  0  0  0
  2  1  2  0  0  0  0
  2  3  1  0  0  0  0
  3  4  2  0  0  0  0
  4  5  1  0  0  0  0
  5 10  1  0  0  0  0
  6 14  1  0  0  0  0
  6  5  2  0  0  0  0
  7  1  1  0  0  0  0
  8  2  1  0  0  0  0
  9 13  1  0  0  0  0
 11  3  1  0  0  0  0
 12 11  1  0  0  0  0
M  RAD  3   4   2  11   2  12   3
M  END
