Coordinates from ORCA-job Ph-N2-X-Cl-B3LYPG-6-31G_dp-scan-d09-49-n400
 OpenBabel08281821073D

 14 14  0  0  0  0  0  0  0  0999 V2000
   -1.3589   -1.3737   -1.4697 C   0  0  0  0  0  0  0  0  0  0  0  0
    0.0175   -1.1992   -1.3445 C   0  0  0  0  0  0  0  0  0  0  0  0
    0.4891   -0.1557   -0.5445 C   0  0  0  0  0  0  0  0  0  0  0  0
   -0.3719    0.6737    0.1807 C   0  0  0  0  0  0  0  0  0  0  0  0
   -1.7447    0.4660    0.0571 C   0  0  0  0  0  0  0  0  0  0  0  0
   -2.2392   -0.5453   -0.7699 C   0  0  0  0  0  0  0  0  0  0  0  0
   -1.7418   -2.1645   -2.1073 H   0  0  0  0  0  0  0  0  0  0  0  0
    0.7191   -1.8396   -1.8673 H   0  0  0  0  0  0  0  0  0  0  0  0
    0.0180    1.4472    0.8324 H   0  0  0  0  0  0  0  0  0  0  0  0
   -2.4284    1.1025    0.6097 H   0  0  0  0  0  0  0  0  0  0  0  0
    1.8959   -0.0194   -0.4006 N   0  0  0  0  0  0  0  0  0  0  0  0
    2.7140    0.7787   -0.6680 N   0  0  0  0  0  0  0  0  0  0  0  0
    2.0510    2.4628   -1.7050 Cl  0  0  0  0  0  0  0  0  0  0  0  0
   -3.3109   -0.6934   -0.8619 H   0  0  0  0  0  0  0  0  0  0  0  0
  1  2  2  0  0  0  0
  1  6  1  0  0  0  0
  2  3  1  0  0  0  0
  3 11  1  0  0  0  0
  3  4  2  0  0  0  0
  4  9  1  0  0  0  0
  5  4  1  0  0  0  0
  5 10  1  0  0  0  0
  6  5  2  0  0  0  0
  7  1  1  0  0  0  0
  8  2  1  0  0  0  0
 12 11  2  0  0  0  0
 13 12  1  0  0  0  0
 14  6  1  0  0  0  0
M  END
