Coordinates from ORCA-job Ph-N2-X-Cl-B3LYPG-6-31G_dp-scan-d09-49-n400
 OpenBabel08281821073D

 14 14  0  0  0  0  0  0  0  0999 V2000
   -1.4220   -1.5295   -1.3403 C   0  0  0  0  0  0  0  0  0  0  0  0
   -0.0496   -1.3080   -1.3756 C   0  0  0  0  0  0  0  0  0  0  0  0
    0.4707   -0.1488   -0.7829 C   0  0  0  0  0  0  0  0  0  0  0  0
   -0.3512    0.7758   -0.1206 C   0  0  0  0  0  0  0  0  0  0  0  0
   -1.7205    0.5228   -0.0803 C   0  0  0  0  0  0  0  0  0  0  0  0
   -2.2563   -0.6149   -0.6908 C   0  0  0  0  0  0  0  0  0  0  0  0
   -1.8384   -2.4161   -1.8070 H   0  0  0  0  0  0  0  0  0  0  0  0
    0.6266   -2.0059   -1.8572 H   0  0  0  0  0  0  0  0  0  0  0  0
    0.0734    1.6547    0.3445 H   0  0  0  0  0  0  0  0  0  0  0  0
   -2.3728    1.2242    0.4301 H   0  0  0  0  0  0  0  0  0  0  0  0
    1.8708   -0.0103   -0.8557 N   0  0  0  0  0  0  0  0  0  0  0  0
    2.7458    0.7625   -0.7874 N   0  0  0  0  0  0  0  0  0  0  0  0
    2.2594    2.8264   -0.4819 Cl  0  0  0  0  0  0  0  0  0  0  0  0
   -3.3270   -0.7928   -0.6538 H   0  0  0  0  0  0  0  0  0  0  0  0
  1  6  1  0  0  0  0
  2  1  2  0  0  0  0
  2  3  1  0  0  0  0
  3  4  2  0  0  0  0
  4  5  1  0  0  0  0
  4  9  1  0  0  0  0
  5 10  1  0  0  0  0
  6 14  1  0  0  0  0
  6  5  2  0  0  0  0
  7  1  1  0  0  0  0
  8  2  1  0  0  0  0
 11 12  2  0  0  0  0
 11  3  1  0  0  0  0
 12 13  1  0  0  0  0
M  END
