Coordinates from ORCA-job Ph-N2-X-Cl-B3LYPG-6-31G_dp-scan-d09-49-n400
 OpenBabel08281821073D

 14 14  0  0  0  0  0  0  0  0999 V2000
   -1.2625   -1.1882   -1.5520 C   0  0  0  0  0  0  0  0  0  0  0  0
    0.0930   -0.9275   -1.3612 C   0  0  0  0  0  0  0  0  0  0  0  0
    0.4540   -0.0110   -0.3709 C   0  0  0  0  0  0  0  0  0  0  0  0
   -0.4879    0.6327    0.4299 C   0  0  0  0  0  0  0  0  0  0  0  0
   -1.8394    0.3770    0.2065 C   0  0  0  0  0  0  0  0  0  0  0  0
   -2.2257   -0.5381   -0.7759 C   0  0  0  0  0  0  0  0  0  0  0  0
   -1.5657   -1.8961   -2.3172 H   0  0  0  0  0  0  0  0  0  0  0  0
    0.8537   -1.4099   -1.9631 H   0  0  0  0  0  0  0  0  0  0  0  0
   -0.1507    1.3416    1.1768 H   0  0  0  0  0  0  0  0  0  0  0  0
   -2.5875    0.8881    0.8035 H   0  0  0  0  0  0  0  0  0  0  0  0
    1.8287    0.2400   -0.1054 N   0  0  0  0  0  0  0  0  0  0  0  0
    2.7062    0.7243   -0.7236 N   0  0  0  0  0  0  0  0  0  0  0  0
    2.1715    1.4530   -2.5691 Cl  0  0  0  0  0  0  0  0  0  0  0  0
   -3.2790   -0.7459   -0.9372 H   0  0  0  0  0  0  0  0  0  0  0  0
  1  2  2  0  0  0  0
  1  6  1  0  0  0  0
  2  3  1  0  0  0  0
  3 11  1  0  0  0  0
  3  4  2  0  0  0  0
  4  9  1  0  0  0  0
  5  4  1  0  0  0  0
  5 10  1  0  0  0  0
  6  5  2  0  0  0  0
  7  1  1  0  0  0  0
  8  2  1  0  0  0  0
 12 11  2  0  0  0  0
 13 12  1  0  0  0  0
 14  6  1  0  0  0  0
M  END
