Coordinates from ORCA-job Ph-N2-X-Cl-B3LYPG-6-31G_dp-scan-d09-49-n400
 OpenBabel08281821073D

 14 13  0  0  0  0  0  0  0  0999 V2000
   -1.4376   -1.6351   -1.2789 C   0  0  0  0  0  0  0  0  0  0  0  0
   -0.0839   -1.4485   -1.4535 C   0  0  0  0  0  0  0  0  0  0  0  0
    0.4295   -0.2227   -0.9537 C   0  0  0  0  0  0  0  0  0  0  0  0
   -0.2368    0.8320   -0.3061 C   0  0  0  0  0  0  0  0  0  0  0  0
   -1.6178    0.5467   -0.1754 C   0  0  0  0  0  0  0  0  0  0  0  0
   -2.2004   -0.6306   -0.6369 C   0  0  0  0  0  0  0  0  0  0  0  0
   -1.9134   -2.5446   -1.6304 H   0  0  0  0  0  0  0  0  0  0  0  0
    0.5486   -2.1867   -1.9376 H   0  0  0  0  0  0  0  0  0  0  0  0
    0.6628    2.2626    0.2361 H   0  0  0  0  0  0  0  0  0  0  0  0
   -2.2586    1.2815    0.3098 H   0  0  0  0  0  0  0  0  0  0  0  0
    1.7905   -0.0007   -1.1100 N   0  0  0  0  0  0  0  0  0  0  0  0
    2.8775    0.2429   -1.2022 N   0  0  0  0  0  0  0  0  0  0  0  0
    1.4164    3.2378    0.5851 Cl  0  0  0  0  0  0  0  0  0  0  0  0
   -3.2680   -0.7944   -0.5051 H   0  0  0  0  0  0  0  0  0  0  0  0
  1  6  1  0  0  0  0
  2  1  2  0  0  0  0
  2  3  1  0  0  0  0
  3  4  2  0  0  0  0
  4  5  1  0  0  0  0
  5 10  1  0  0  0  0
  6 14  1  0  0  0  0
  6  5  2  0  0  0  0
  7  1  1  0  0  0  0
  8  2  1  0  0  0  0
  9 13  1  0  0  0  0
 11  3  1  0  0  0  0
 12 11  1  0  0  0  0
M  RAD  3   4   2  11   2  12   3
M  END
