Coordinates from ORCA-job Ph-N2-X-Cl-B3LYPG-6-31G_dp-scan-d09-49-n400
 OpenBabel08281821073D

 14 14  0  0  0  0  0  0  0  0999 V2000
   -1.3661   -1.3872   -1.4617 C   0  0  0  0  0  0  0  0  0  0  0  0
    0.0110   -1.2138   -1.3459 C   0  0  0  0  0  0  0  0  0  0  0  0
    0.4901   -0.1606   -0.5624 C   0  0  0  0  0  0  0  0  0  0  0  0
   -0.3656    0.6794    0.1576 C   0  0  0  0  0  0  0  0  0  0  0  0
   -1.7392    0.4714    0.0458 C   0  0  0  0  0  0  0  0  0  0  0  0
   -2.2405   -0.5487   -0.7663 C   0  0  0  0  0  0  0  0  0  0  0  0
   -1.7544   -2.1852   -2.0869 H   0  0  0  0  0  0  0  0  0  0  0  0
    0.7089   -1.8623   -1.8637 H   0  0  0  0  0  0  0  0  0  0  0  0
    0.0286    1.4596    0.7983 H   0  0  0  0  0  0  0  0  0  0  0  0
   -2.4186    1.1147    0.5959 H   0  0  0  0  0  0  0  0  0  0  0  0
    1.8975   -0.0285   -0.4330 N   0  0  0  0  0  0  0  0  0  0  0  0
    2.7159    0.7789   -0.6685 N   0  0  0  0  0  0  0  0  0  0  0  0
    2.0540    2.5181   -1.6182 Cl  0  0  0  0  0  0  0  0  0  0  0  0
   -3.3130   -0.6960   -0.8498 H   0  0  0  0  0  0  0  0  0  0  0  0
  1  2  2  0  0  0  0
  1  6  1  0  0  0  0
  2  3  1  0  0  0  0
  3 11  1  0  0  0  0
  3  4  2  0  0  0  0
  4  9  1  0  0  0  0
  5  4  1  0  0  0  0
  5 10  1  0  0  0  0
  6  5  2  0  0  0  0
  7  1  1  0  0  0  0
  8  2  1  0  0  0  0
 12 11  2  0  0  0  0
 13 12  1  0  0  0  0
 14  6  1  0  0  0  0
M  END
