Coordinates from ORCA-job Ph-N2-X-Cl-B3LYPG-6-31G_dp-scan-d09-49-n400
 OpenBabel08281821073D

 14 14  0  0  0  0  0  0  0  0999 V2000
   -1.4085   -1.4793   -1.3928 C   0  0  0  0  0  0  0  0  0  0  0  0
   -0.0306   -1.2887   -1.3621 C   0  0  0  0  0  0  0  0  0  0  0  0
    0.4849   -0.1689   -0.6975 C   0  0  0  0  0  0  0  0  0  0  0  0
   -0.3422    0.7316   -0.0128 C   0  0  0  0  0  0  0  0  0  0  0  0
   -1.7169    0.5049   -0.0329 C   0  0  0  0  0  0  0  0  0  0  0  0
   -2.2506   -0.5844   -0.7267 C   0  0  0  0  0  0  0  0  0  0  0  0
   -1.8230   -2.3311   -1.9223 H   0  0  0  0  0  0  0  0  0  0  0  0
    0.6489   -1.9773   -1.8520 H   0  0  0  0  0  0  0  0  0  0  0  0
    0.0775    1.5713    0.5243 H   0  0  0  0  0  0  0  0  0  0  0  0
   -2.3735    1.1892    0.4948 H   0  0  0  0  0  0  0  0  0  0  0  0
    1.8913   -0.0448   -0.6892 N   0  0  0  0  0  0  0  0  0  0  0  0
    2.7354    0.7666   -0.7199 N   0  0  0  0  0  0  0  0  0  0  0  0
    2.1413    2.7929   -0.9301 Cl  0  0  0  0  0  0  0  0  0  0  0  0
   -3.3251   -0.7420   -0.7396 H   0  0  0  0  0  0  0  0  0  0  0  0
  1  2  2  0  0  0  0
  1  6  1  0  0  0  0
  2  3  1  0  0  0  0
  3 11  1  0  0  0  0
  3  4  2  0  0  0  0
  4  9  1  0  0  0  0
  5  4  1  0  0  0  0
  5 10  1  0  0  0  0
  6  5  2  0  0  0  0
  7  1  1  0  0  0  0
  8  2  1  0  0  0  0
 12 11  2  0  0  0  0
 13 12  1  0  0  0  0
 14  6  1  0  0  0  0
M  END
