Coordinates from ORCA-job Ph-N2-X-Cl-B3LYPG-6-31G_dp-scan-d09-49-n400
 OpenBabel08281821073D

 14 14  0  0  0  0  0  0  0  0999 V2000
   -1.2940   -1.2580   -1.5255 C   0  0  0  0  0  0  0  0  0  0  0  0
    0.0720   -1.0475   -1.3439 C   0  0  0  0  0  0  0  0  0  0  0  0
    0.4742   -0.0872   -0.4147 C   0  0  0  0  0  0  0  0  0  0  0  0
   -0.4367    0.6396    0.3513 C   0  0  0  0  0  0  0  0  0  0  0  0
   -1.7980    0.4176    0.1483 C   0  0  0  0  0  0  0  0  0  0  0  0
   -2.2269   -0.5298   -0.7840 C   0  0  0  0  0  0  0  0  0  0  0  0
   -1.6272   -1.9924   -2.2524 H   0  0  0  0  0  0  0  0  0  0  0  0
    0.8108   -1.5994   -1.9135 H   0  0  0  0  0  0  0  0  0  0  0  0
   -0.0803    1.3727    1.0664 H   0  0  0  0  0  0  0  0  0  0  0  0
   -2.5219    0.9874    0.7219 H   0  0  0  0  0  0  0  0  0  0  0  0
    1.8671    0.1069   -0.1803 N   0  0  0  0  0  0  0  0  0  0  0  0
    2.7011    0.7515   -0.7030 N   0  0  0  0  0  0  0  0  0  0  0  0
    2.0571    1.8806   -2.2975 Cl  0  0  0  0  0  0  0  0  0  0  0  0
   -3.2886   -0.7017   -0.9320 H   0  0  0  0  0  0  0  0  0  0  0  0
  1  2  2  0  0  0  0
  1  6  1  0  0  0  0
  2  3  1  0  0  0  0
  3 11  1  0  0  0  0
  3  4  2  0  0  0  0
  4  9  1  0  0  0  0
  5  4  1  0  0  0  0
  5 10  1  0  0  0  0
  6  5  2  0  0  0  0
  7  1  1  0  0  0  0
  8  2  1  0  0  0  0
 12 11  2  0  0  0  0
 13 12  1  0  0  0  0
 14  6  1  0  0  0  0
M  END
