Coordinates from ORCA-job Ph-N2-X-Cl-B3LYPG-6-31G_dp-scan-d09-49-n400
 OpenBabel08281821073D

 14 13  0  0  0  0  0  0  0  0999 V2000
   -1.4295   -1.6190   -1.2729 C   0  0  0  0  0  0  0  0  0  0  0  0
   -0.0753   -1.4269   -1.4446 C   0  0  0  0  0  0  0  0  0  0  0  0
    0.4341   -0.2019   -0.9435 C   0  0  0  0  0  0  0  0  0  0  0  0
   -0.2454    0.8440   -0.2972 C   0  0  0  0  0  0  0  0  0  0  0  0
   -1.6232    0.5600   -0.1671 C   0  0  0  0  0  0  0  0  0  0  0  0
   -2.1990   -0.6202   -0.6320 C   0  0  0  0  0  0  0  0  0  0  0  0
   -1.9000   -2.5302   -1.6268 H   0  0  0  0  0  0  0  0  0  0  0  0
    0.5606   -2.1622   -1.9283 H   0  0  0  0  0  0  0  0  0  0  0  0
    0.6018    2.1349    0.1836 H   0  0  0  0  0  0  0  0  0  0  0  0
   -2.2643    1.2939    0.3180 H   0  0  0  0  0  0  0  0  0  0  0  0
    1.7945    0.0300   -1.0947 N   0  0  0  0  0  0  0  0  0  0  0  0
    2.8772    0.2917   -1.1771 N   0  0  0  0  0  0  0  0  0  0  0  0
    1.4432    3.1347    0.5270 Cl  0  0  0  0  0  0  0  0  0  0  0  0
   -3.2659   -0.7889   -0.5032 H   0  0  0  0  0  0  0  0  0  0  0  0
  1  6  1  0  0  0  0
  2  1  2  0  0  0  0
  2  3  1  0  0  0  0
  3  4  2  0  0  0  0
  4  5  1  0  0  0  0
  5 10  1  0  0  0  0
  6 14  1  0  0  0  0
  6  5  2  0  0  0  0
  7  1  1  0  0  0  0
  8  2  1  0  0  0  0
  9 13  1  0  0  0  0
 11  3  1  0  0  0  0
 12 11  1  0  0  0  0
M  RAD  3   4   2  11   2  12   3
M  END
