Coordinates from ORCA-job Ph-N2-X-Cl-B3LYPG-6-31G_dp-scan-d09-49-n400
 OpenBabel08281821073D

 14 14  0  0  0  0  0  0  0  0999 V2000
   -1.3740   -1.4024   -1.4521 C   0  0  0  0  0  0  0  0  0  0  0  0
    0.0039   -1.2293   -1.3478 C   0  0  0  0  0  0  0  0  0  0  0  0
    0.4908   -0.1652   -0.5832 C   0  0  0  0  0  0  0  0  0  0  0  0
   -0.3591    0.6861    0.1313 C   0  0  0  0  0  0  0  0  0  0  0  0
   -1.7336    0.4774    0.0331 C   0  0  0  0  0  0  0  0  0  0  0  0
   -2.2420   -0.5528   -0.7618 C   0  0  0  0  0  0  0  0  0  0  0  0
   -1.7680   -2.2087   -2.0628 H   0  0  0  0  0  0  0  0  0  0  0  0
    0.6977   -1.8864   -1.8601 H   0  0  0  0  0  0  0  0  0  0  0  0
    0.0399    1.4743    0.7585 H   0  0  0  0  0  0  0  0  0  0  0  0
   -2.4083    1.1283    0.5799 H   0  0  0  0  0  0  0  0  0  0  0  0
    1.8987   -0.0368   -0.4707 N   0  0  0  0  0  0  0  0  0  0  0  0
    2.7184    0.7784   -0.6714 N   0  0  0  0  0  0  0  0  0  0  0  0
    2.0596    2.5769   -1.5165 Cl  0  0  0  0  0  0  0  0  0  0  0  0
   -3.3153   -0.6998   -0.8352 H   0  0  0  0  0  0  0  0  0  0  0  0
  1  2  2  0  0  0  0
  1  6  1  0  0  0  0
  2  3  1  0  0  0  0
  3 11  1  0  0  0  0
  3  4  2  0  0  0  0
  4  9  1  0  0  0  0
  5  4  1  0  0  0  0
  5 10  1  0  0  0  0
  6  5  2  0  0  0  0
  7  1  1  0  0  0  0
  8  2  1  0  0  0  0
 12 11  2  0  0  0  0
 13 12  1  0  0  0  0
 14  6  1  0  0  0  0
M  END
