Coordinates from ORCA-job Ph-N2-X-Cl-B3LYPG-6-31G_dp-scan-d09-49-n400
 OpenBabel08281821073D

 14 14  0  0  0  0  0  0  0  0999 V2000
   -1.2609   -1.1832   -1.5538 C   0  0  0  0  0  0  0  0  0  0  0  0
    0.0938   -0.9181   -1.3633 C   0  0  0  0  0  0  0  0  0  0  0  0
    0.4521   -0.0043   -0.3693 C   0  0  0  0  0  0  0  0  0  0  0  0
   -0.4918    0.6326    0.4346 C   0  0  0  0  0  0  0  0  0  0  0  0
   -1.8425    0.3735    0.2110 C   0  0  0  0  0  0  0  0  0  0  0  0
   -2.2260   -0.5393   -0.7747 C   0  0  0  0  0  0  0  0  0  0  0  0
   -1.5621   -1.8894   -2.3213 H   0  0  0  0  0  0  0  0  0  0  0  0
    0.8558   -1.3950   -1.9677 H   0  0  0  0  0  0  0  0  0  0  0  0
   -0.1559    1.3394    1.1840 H   0  0  0  0  0  0  0  0  0  0  0  0
   -2.5922    0.8796    0.8104 H   0  0  0  0  0  0  0  0  0  0  0  0
    1.8251    0.2519   -0.1021 N   0  0  0  0  0  0  0  0  0  0  0  0
    2.7069    0.7234   -0.7240 N   0  0  0  0  0  0  0  0  0  0  0  0
    2.1852    1.4195   -2.5864 Cl  0  0  0  0  0  0  0  0  0  0  0  0
   -3.2786   -0.7503   -0.9362 H   0  0  0  0  0  0  0  0  0  0  0  0
  1  2  2  0  0  0  0
  1  6  1  0  0  0  0
  2  3  1  0  0  0  0
  3 11  1  0  0  0  0
  3  4  2  0  0  0  0
  4  9  1  0  0  0  0
  5  4  1  0  0  0  0
  5 10  1  0  0  0  0
  6  5  2  0  0  0  0
  7  1  1  0  0  0  0
  8  2  1  0  0  0  0
 12 11  2  0  0  0  0
 13 12  1  0  0  0  0
 14  6  1  0  0  0  0
M  END
