16
Coordinates from ORCA-job p-NO2-Ph-N2-X-Cl-B3LYPG-6-31G_dp-scan-d09-49-n400
  C   -1.52487048803213     -1.55823953754165     -1.06534401596367
  C   -0.15463116355071     -1.42487898685987     -1.25414921942763
  C   0.43707417452909     -0.16781484112244     -1.09105644330279
  C   -0.31412055592162      0.97713036307184     -0.79582800676914
  C   -1.68944086304919      0.84408578413959     -0.63630933084058
  C   -2.26721017177072     -0.41776662376124     -0.76398032616860
  H   -2.02475736302292     -2.51369448135816     -1.15992290474372
  H   0.46640890139649     -2.27571324880410     -1.50744555370811
  H   0.17084679644632      1.93834553263879     -0.68913129215406
  H   -2.31593756598055      1.69677550586473     -0.40794072710234
  N   -3.72731004750477     -0.55087559595162     -0.58297640411968
  O   -4.36097358205191      0.47132000330104     -0.33337992189883
  O   -4.21136795209785     -1.67292550263643     -0.71001798294996
  N   1.83091772810114     -0.09395979642483     -1.32858308045460
  N   2.75771670741546      0.44851184351005     -0.84077028774994
  Cl  2.40885544509384      1.54759958193423      0.86303549735365
