29
Coordinates from ORCA-job 1g-Schema5-R8-G+-B3LYPG-6-31G_dp-scan-d49-09-n400
  C   -4.06054216936842     -1.57325186098284     -1.53039920510154
  C   -2.98683123212475     -2.51068705566583     -2.10824163902223
  C   -2.91001428220974     -2.33299357711009     -3.72711008310845
  C   -3.66008078890934     -1.40802662764098     -4.40904910617988
  C   -4.55653543707834     -0.59693175658565     -3.69247457792902
  C   -4.77135658894621     -0.68474970048861     -2.28641277219585
  H   -4.22628609774134     -1.62653124827595     -0.45518749632962
  H   -5.13224603051601      0.14697451431696     -4.23639898998618
  H   -3.58575805123524     -1.27035365863586     -5.48569551022440
  N   -2.43299806146424     -3.06632431508274     -1.66717920848110
  N   -1.36784030837743     -3.92291171676573     -1.93258069012830
  C   -1.09832328362444     -3.97317194633467     -3.21580953929114
  C   -1.97641594800323     -3.33570753137417     -4.28930786805969
  C   0.05031032565982     -4.72081936032909     -3.64528275076163
  C   -1.33555198357186     -3.16281624835041     -5.63191860060507
  H   -2.69320945499885     -4.17858537607880     -4.48437575089797
  C   0.48274194785549     -4.63750983255891     -4.93215116236046
  H   0.58731198388418     -5.28718789789833     -2.89235321555731
  C   -0.18922333087720     -3.81834558760453     -5.92467699586961
  H   -1.84196259655130     -2.57060102463356     -6.38566156530928
  H   1.37633867614751     -5.16176655794357     -5.25541177441306
  C   0.45992568613504     -3.73069442224319     -7.27529915785005
  O   1.48169002879640     -4.31574390684752     -7.55089044203323
  O   -0.21931614879517     -2.93743036014291     -8.12363643793656
  H   0.26439411850516     -2.93113565168679     -8.96774291707016
  C   -5.77892415908550      0.19900992989951     -1.59248778465630
  O   -5.99228943626649      0.14701390524017     -0.40590764358382
  O   -6.39243130854861      1.02707049999326     -2.45509714494170
  H   -7.02647606868999      1.56840837181078     -1.95265997011663
