29
Coordinates from ORCA-job 1g-Schema5-R8-G+-B3LYPG-6-31G_dp-scan-d49-09-n400
  C   -4.00329917858038     -1.41990735508726     -2.01388047753894
  C   -2.70743655384682     -1.01462753439386     -2.37541727870513
  C   -2.60982777864279      0.16436192505737     -2.85329278746115
  C   -3.43898800483031      1.18770899605949     -3.19216559219317
  C   -4.75067917845183      0.77930090657285     -2.84033238527159
  C   -5.02269319048514     -0.48346073205423     -2.27729351991413
  H   -4.24038241828872     -2.38164318721549     -1.56959993882653
  H   -5.56290240515872      1.48130528021297     -3.00257315039009
  H   -3.20069099012454      2.15560487001012     -3.61337738103900
  N   -1.26290736522669     -2.14537154054028     -1.70644531421982
  N   -0.74910480017499     -2.89077336976338     -2.41994067772583
  C   -0.55812725643438     -3.48239640184166     -3.66341135322399
  C   -1.38892218210890     -3.13550702282773     -4.74624039791208
  C   0.47782712637737     -4.42627302212353     -3.76918434942930
  C   -1.15886784661112     -3.75751476961826     -5.96483371742692
  H   -2.18403283954795     -2.40963653153101     -4.62403894899279
  C   0.68977215707319     -5.03083079970857     -4.99964130326139
  H   1.08707272424645     -4.66327751304960     -2.90402195549094
  C   -0.12345816006188     -4.69919694474512     -6.09260006901988
  H   -1.77706400134596     -3.52051309501237     -6.82266516415042
  H   1.47680912710309     -5.76378232972314     -5.13870876600619
  C   0.16200852638176     -5.39411841213145     -7.39604960290126
  O   1.04788730381849     -6.20645249457324     -7.52858712318910
  O   -0.67425511607266     -5.00556387555516     -8.37368853096404
  H   -0.43183564028471     -5.49345961843365     -9.17989998944286
  C   -6.41954741163604     -0.90208085040724     -1.91882771062224
  O   -6.68931954365295     -1.98974820774097     -1.46134598359618
  O   -7.32410547648752      0.06279125333499     -2.16434967868947
  H   -8.19482962694549     -0.28073762317057     -1.89898685239569
