29
Coordinates from ORCA-job 1g-Schema5-R8-G+-B3LYPG-6-31G_dp-scan-d49-09-n400
  C   -3.56744374838793     -1.30664123245128     -1.74243407027128
  C   -2.89270585674281     -0.58877206806832     -0.76568066844473
  C   -3.12216673666509      0.62507887737865     -0.55003623244743
  C   -3.97573791144540      1.52155517766321     -1.15053931762940
  C   -4.68487183465453      0.86024409265175     -2.17947110279503
  C   -4.47655994703570     -0.50407458365901     -2.47979130329439
  H   -3.46646763622559     -2.36561174440577     -1.95784718817612
  H   -5.41710395978313      1.41931958577803     -2.75328981726706
  H   -4.13508692944083      2.56337165656367     -0.90099868968913
  N   -0.53275780768896     -1.22986818664487     -2.23878012574374
  N   -0.55037367122526     -2.00518342562972     -3.04372467476158
  C   -0.58833481257107     -2.96833151047521     -4.03044659658993
  C   -1.83744295723757     -3.29745129114204     -4.59356834464852
  C   0.63587450418471     -3.56197532127069     -4.40788344390737
  C   -1.83920451532672     -4.27617739020713     -5.57941883705531
  H   -2.76192128759816     -2.81528812255843     -4.27865803538505
  C   0.58813080813398     -4.53173032664561     -5.39294321549716
  H   1.56731977262242     -3.26565699205567     -3.93897100339592
  C   -0.64070667715804     -4.88898000623500     -5.97548202162841
  H   -2.77512186618429     -4.56583703511883     -6.04161906533843
  H   1.48942140066157     -5.03056877528884     -5.73125171747216
  C   -0.60325622279220     -5.95580436456820     -7.03866429403451
  O   0.42331979472173     -6.48697934399838     -7.39382818561948
  O   -1.82255469415552     -6.22874431685840     -7.52493393313568
  H   -1.72687428793167     -6.92152189673076     -8.20192423675371
  C   -5.16482143850844     -1.15989409734541     -3.62616935833240
  O   -4.76482589021787     -2.18628263295039     -4.15773940453002
  O   -6.26173356535121     -0.51164156933563     -4.03970225602250
  H   -6.62789202599651     -1.00235315639170     -4.79560286013374
