Coordinates from ORCA-job p-NO2-Ph-N2-BF4-B3LYPG-6-31G_dp-scan-d09-49-n400
 OpenBabel08281821153D

 20 19  0  0  1  0  0  0  0  0999 V2000
   -0.9320    0.4828    1.4230 C   0  0  0  0  0  0  0  0  0  0  0  0
    0.4796    0.1194    1.1905 C   0  0  1  0  0  0  0  0  0  0  0  0
    1.1409    0.5137   -0.0656 C   0  0  2  0  0  0  0  0  0  0  0  0
    0.2817    0.8631   -1.1281 C   0  0  0  0  0  0  0  0  0  0  0  0
   -1.0751    1.0424   -0.9381 C   0  0  0  0  0  0  0  0  0  0  0  0
   -1.6680    0.8522    0.3460 C   0  0  0  0  0  0  0  0  0  0  0  0
   -1.3683    0.3761    2.4100 H   0  0  0  0  0  0  0  0  0  0  0  0
    0.3908   -0.9646    0.8782 H   0  0  0  0  0  0  0  0  0  0  0  0
    0.7374    1.0579   -2.0931 H   0  0  0  0  0  0  0  0  0  0  0  0
   -1.7254    1.3546   -1.7488 H   0  0  0  0  0  0  0  0  0  0  0  0
   -3.1116    1.1377    0.5136 N   0  0  0  0  0  0  0  0  0  0  0  0
   -3.5914    0.9568    1.6263 O   0  0  0  0  0  0  0  0  0  0  0  0
   -3.7145    1.5337   -0.4788 O   0  0  0  0  0  0  0  0  0  0  0  0
    1.5999    3.0738    1.7159 N   0  0  0  0  0  0  0  0  0  0  0  0
    2.3637    3.8178    2.0043 N   0  0  0  0  0  0  0  0  0  0  0  0
    2.7788    0.2481   -0.2921 B   0  0  0  0  0  0  0  0  0  0  0  0
    2.8867   -1.1244   -0.0425 F   0  0  0  0  0  0  0  0  0  0  0  0
    3.0521    0.5718   -1.6156 F   0  0  0  0  0  0  0  0  0  0  0  0
    3.4820    1.0257    0.6079 F   0  0  0  0  0  0  0  0  0  0  0  0
    1.2357    0.1801    2.3199 F   0  0  0  0  0  0  0  0  0  0  0  0
  1  7  1  0  0  0  0
  2  8  1  6  0  0  0
  2  1  1  0  0  0  0
  2 20  1  0  0  0  0
  3 16  1  6  0  0  0
  3  2  1  0  0  0  0
  4  5  2  0  0  0  0
  4  3  1  0  0  0  0
  5  6  1  0  0  0  0
  6 11  1  0  0  0  0
  6  1  2  0  0  0  0
  9  4  1  0  0  0  0
 10  5  1  0  0  0  0
 11 12  2  0  0  0  0
 13 11  2  0  0  0  0
 14 15  3  0  0  0  0
 16 17  1  0  0  0  0
 16 19  1  0  0  0  0
 18 16  1  0  0  0  0
M  RAD  1   3   2
M  END
