Coordinates from ORCA-job p-NO2-Ph-N2-BF4-B3LYPG-6-31G_dp-scan-d09-49-n400
 OpenBabel08281821153D

 20 20  0  0  1  0  0  0  0  0999 V2000
   -1.0002    0.4372    1.4473 C   0  0  0  0  0  0  0  0  0  0  0  0
    0.4534    0.1154    1.2705 C   0  0  1  0  0  0  0  0  0  0  0  0
    1.1683    0.9525    0.2097 C   0  0  1  0  0  0  0  0  0  0  0  0
    0.2968    1.2022   -0.9832 C   0  0  0  0  0  0  0  0  0  0  0  0
   -1.0451    1.1469   -0.9005 C   0  0  0  0  0  0  0  0  0  0  0  0
   -1.6859    0.8683    0.3794 C   0  0  0  0  0  0  0  0  0  0  0  0
   -1.4813    0.2387    2.3980 H   0  0  0  0  0  0  0  0  0  0  0  0
    0.5422   -0.9257    0.9172 H   0  0  0  0  0  0  0  0  0  0  0  0
    0.7974    1.4512   -1.9115 H   0  0  0  0  0  0  0  0  0  0  0  0
   -1.6807    1.3319   -1.7576 H   0  0  0  0  0  0  0  0  0  0  0  0
   -3.1400    1.0927    0.4942 N   0  0  0  0  0  0  0  0  0  0  0  0
   -3.6691    0.8774    1.5803 O   0  0  0  0  0  0  0  0  0  0  0  0
   -3.7207    1.4830   -0.5171 O   0  0  0  0  0  0  0  0  0  0  0  0
    1.4768    2.3231    0.9069 N   0  0  0  0  0  0  0  0  0  0  0  0
    2.5433    2.6499    1.1770 N   0  0  0  0  0  0  0  0  0  0  0  0
    2.7237    0.4329   -0.1339 B   0  0  0  0  0  0  0  0  0  0  0  0
    2.9493   -0.8264    0.3405 F   0  0  0  0  0  0  0  0  0  0  0  0
    3.0432    0.6362   -1.4481 F   0  0  0  0  0  0  0  0  0  0  0  0
    3.5561    1.4149    0.6827 F   0  0  0  0  0  0  0  0  0  0  0  0
    1.1155    0.2163    2.4809 F   0  0  0  0  0  0  0  0  0  0  0  0
  1  7  1  0  0  0  0
  2  8  1  6  0  0  0
  2  1  1  0  0  0  0
  2 20  1  0  0  0  0
  3 16  1  6  0  0  0
  3 14  1  0  0  0  0
  3  2  1  0  0  0  0
  4  5  2  0  0  0  0
  4  3  1  0  0  0  0
  5  6  1  0  0  0  0
  6 11  1  0  0  0  0
  6  1  2  0  0  0  0
  9  4  1  0  0  0  0
 10  5  1  0  0  0  0
 11 12  2  0  0  0  0
 13 11  2  0  0  0  0
 14 15  2  0  0  0  0
 16 17  1  0  0  0  0
 16 19  1  0  0  0  0
 18 16  1  0  0  0  0
M  RAD  1  15   2
M  END
