Coordinates from ORCA-job p-NO2-Ph-N2-BF4-B3LYPG-6-31G_dp-scan-d09-49-n400
 OpenBabel08281821153D

 20 19  0  0  1  0  0  0  0  0999 V2000
   -0.9492    0.5154    1.4176 C   0  0  0  0  0  0  0  0  0  0  0  0
    0.4696    0.1751    1.1959 C   0  0  1  0  0  0  0  0  0  0  0  0
    1.1267    0.5500   -0.0686 C   0  0  2  0  0  0  0  0  0  0  0  0
    0.2632    0.8559   -1.1399 C   0  0  0  0  0  0  0  0  0  0  0  0
   -1.0977    1.0156   -0.9560 C   0  0  0  0  0  0  0  0  0  0  0  0
   -1.6899    0.8444    0.3304 C   0  0  0  0  0  0  0  0  0  0  0  0
   -1.3850    0.4245    2.4065 H   0  0  0  0  0  0  0  0  0  0  0  0
    0.4007   -0.9164    0.9037 H   0  0  0  0  0  0  0  0  0  0  0  0
    0.7165    1.0336   -2.1092 H   0  0  0  0  0  0  0  0  0  0  0  0
   -1.7517    1.2967   -1.7751 H   0  0  0  0  0  0  0  0  0  0  0  0
   -3.1395    1.1052    0.4884 N   0  0  0  0  0  0  0  0  0  0  0  0
   -3.6187    0.9365    1.6031 O   0  0  0  0  0  0  0  0  0  0  0  0
   -3.7466    1.4694   -0.5135 O   0  0  0  0  0  0  0  0  0  0  0  0
    1.5712    3.1490    1.9051 N   0  0  0  0  0  0  0  0  0  0  0  0
    2.6599    3.3371    1.9198 N   0  0  0  0  0  0  0  0  0  0  0  0
    2.7738    0.3221   -0.2850 B   0  0  0  0  0  0  0  0  0  0  0  0
    2.9379   -1.0233    0.0538 F   0  0  0  0  0  0  0  0  0  0  0  0
    3.0305    0.5706   -1.6276 F   0  0  0  0  0  0  0  0  0  0  0  0
    3.4492    1.1871    0.5584 F   0  0  0  0  0  0  0  0  0  0  0  0
    1.2220    0.2701    2.3251 F   0  0  0  0  0  0  0  0  0  0  0  0
  1  7  1  0  0  0  0
  2  8  1  6  0  0  0
  2  1  1  0  0  0  0
  2 20  1  0  0  0  0
  3 16  1  6  0  0  0
  3  2  1  0  0  0  0
  4  5  2  0  0  0  0
  4  3  1  0  0  0  0
  5  6  1  0  0  0  0
  6 11  1  0  0  0  0
  6  1  2  0  0  0  0
  9  4  1  0  0  0  0
 10  5  1  0  0  0  0
 11 12  2  0  0  0  0
 13 11  2  0  0  0  0
 14 15  3  0  0  0  0
 16 17  1  0  0  0  0
 16 19  1  0  0  0  0
 18 16  1  0  0  0  0
M  RAD  1   3   2
M  END
