Coordinates from ORCA-job p-NO2-Ph-N2-BF4-B3LYPG-6-31G_dp-scan-d09-49-n400
 OpenBabel08281821153D

 20 19  0  0  1  0  0  0  0  0999 V2000
   -0.9682    0.5154    1.4134 C   0  0  0  0  0  0  0  0  0  0  0  0
    0.4535    0.1837    1.1974 C   0  0  1  0  0  0  0  0  0  0  0  0
    1.1117    0.5575   -0.0667 C   0  0  2  0  0  0  0  0  0  0  0  0
    0.2499    0.8520   -1.1421 C   0  0  0  0  0  0  0  0  0  0  0  0
   -1.1128    1.0041   -0.9628 C   0  0  0  0  0  0  0  0  0  0  0  0
   -1.7076    0.8352    0.3224 C   0  0  0  0  0  0  0  0  0  0  0  0
   -1.4065    0.4253    2.4013 H   0  0  0  0  0  0  0  0  0  0  0  0
    0.3901   -0.9091    0.9070 H   0  0  0  0  0  0  0  0  0  0  0  0
    0.7047    1.0285   -2.1110 H   0  0  0  0  0  0  0  0  0  0  0  0
   -1.7660    1.2773   -1.7852 H   0  0  0  0  0  0  0  0  0  0  0  0
   -3.1595    1.0875    0.4750 N   0  0  0  0  0  0  0  0  0  0  0  0
   -3.6409    0.9194    1.5887 O   0  0  0  0  0  0  0  0  0  0  0  0
   -3.7656    1.4440   -0.5302 O   0  0  0  0  0  0  0  0  0  0  0  0
    1.6952    3.1636    1.9525 N   0  0  0  0  0  0  0  0  0  0  0  0
    2.7970    3.1810    1.8622 N   0  0  0  0  0  0  0  0  0  0  0  0
    2.7647    0.3638   -0.2690 B   0  0  0  0  0  0  0  0  0  0  0  0
    2.9764   -0.9625    0.1077 F   0  0  0  0  0  0  0  0  0  0  0  0
    3.0249    0.5888   -1.6144 F   0  0  0  0  0  0  0  0  0  0  0  0
    3.4004    1.2789    0.5584 F   0  0  0  0  0  0  0  0  0  0  0  0
    1.2015    0.2843    2.3285 F   0  0  0  0  0  0  0  0  0  0  0  0
  1  7  1  0  0  0  0
  2  8  1  6  0  0  0
  2  1  1  0  0  0  0
  2 20  1  0  0  0  0
  3 16  1  6  0  0  0
  3  2  1  0  0  0  0
  4  5  2  0  0  0  0
  4  3  1  0  0  0  0
  5  6  1  0  0  0  0
  6 11  1  0  0  0  0
  6  1  2  0  0  0  0
  9  4  1  0  0  0  0
 10  5  1  0  0  0  0
 11 12  2  0  0  0  0
 13 11  2  0  0  0  0
 15 14  3  0  0  0  0
 16 17  1  0  0  0  0
 16 19  1  0  0  0  0
 18 16  1  0  0  0  0
M  RAD  1   3   2
M  END
