Coordinates from ORCA-job p-NO2-Ph-N2-BF4-B3LYPG-6-31G_dp-scan-d09-49-n400
 OpenBabel08281821153D

 20 20  0  0  1  0  0  0  0  0999 V2000
   -0.9617    0.4579    1.4410 C   0  0  0  0  0  0  0  0  0  0  0  0
    0.4752    0.0767    1.2323 C   0  0  1  0  0  0  0  0  0  0  0  0
    1.1907    0.9255    0.1601 C   0  0  1  0  0  0  0  0  0  0  0  0
    0.2811    1.1297   -1.0407 C   0  0  0  0  0  0  0  0  0  0  0  0
   -1.0553    1.1110   -0.9236 C   0  0  0  0  0  0  0  0  0  0  0  0
   -1.6649    0.8811    0.3833 C   0  0  0  0  0  0  0  0  0  0  0  0
   -1.4193    0.3023    2.4109 H   0  0  0  0  0  0  0  0  0  0  0  0
    0.5088   -0.9723    0.8974 H   0  0  0  0  0  0  0  0  0  0  0  0
    0.7540    1.3619   -1.9888 H   0  0  0  0  0  0  0  0  0  0  0  0
   -1.7091    1.2995   -1.7657 H   0  0  0  0  0  0  0  0  0  0  0  0
   -3.1065    1.1512    0.5356 N   0  0  0  0  0  0  0  0  0  0  0  0
   -3.6101    0.9820    1.6424 O   0  0  0  0  0  0  0  0  0  0  0  0
   -3.7085    1.5266   -0.4695 O   0  0  0  0  0  0  0  0  0  0  0  0
    1.3914    2.2932    0.7790 N   0  0  0  0  0  0  0  0  0  0  0  0
    2.4682    2.6172    1.2184 N   0  0  0  0  0  0  0  0  0  0  0  0
    2.5970    0.2904   -0.2648 B   0  0  0  0  0  0  0  0  0  0  0  0
    3.0037   -0.8632    0.2503 F   0  0  0  0  0  0  0  0  0  0  0  0
    3.1988    0.7433   -1.3611 F   0  0  0  0  0  0  0  0  0  0  0  0
    3.4386    1.6457    1.0693 F   0  0  0  0  0  0  0  0  0  0  0  0
    1.1709    0.1591    2.4272 F   0  0  0  0  0  0  0  0  0  0  0  0
  1  7  1  0  0  0  0
  2  8  1  6  0  0  0
  2  1  1  0  0  0  0
  2 20  1  0  0  0  0
  3 16  1  6  0  0  0
  3 14  1  0  0  0  0
  3  2  1  0  0  0  0
  4  5  2  0  0  0  0
  4  3  1  0  0  0  0
  5  6  1  0  0  0  0
  6 11  1  0  0  0  0
  6  1  2  0  0  0  0
  9  4  1  0  0  0  0
 10  5  1  0  0  0  0
 11 12  2  0  0  0  0
 13 11  2  0  0  0  0
 14 15  1  0  0  0  0
 16 17  1  0  0  0  0
 18 16  1  0  0  0  0
 19 15  1  0  0  0  0
M  RAD  2  14   2  15   2
M  END
