Coordinates from ORCA-job p-NO2-Ph-N2-BF4-B3LYPG-6-31G_dp-scan-d09-49-n400
 OpenBabel08281821153D

 20 20  0  0  1  0  0  0  0  0999 V2000
   -0.9266    0.4916    1.4448 C   0  0  0  0  0  0  0  0  0  0  0  0
    0.5058    0.1061    1.2274 C   0  0  1  0  0  0  0  0  0  0  0  0
    1.2104    0.9276    0.1246 C   0  0  1  0  0  0  0  0  0  0  0  0
    0.2792    1.1081   -1.0676 C   0  0  0  0  0  0  0  0  0  0  0  0
   -1.0557    1.0847   -0.9346 C   0  0  0  0  0  0  0  0  0  0  0  0
   -1.6464    0.8765    0.3834 C   0  0  0  0  0  0  0  0  0  0  0  0
   -1.3708    0.3660    2.4252 H   0  0  0  0  0  0  0  0  0  0  0  0
    0.5332   -0.9566    0.9404 H   0  0  0  0  0  0  0  0  0  0  0  0
    0.7324    1.3532   -2.0228 H   0  0  0  0  0  0  0  0  0  0  0  0
   -1.7201    1.2725   -1.7683 H   0  0  0  0  0  0  0  0  0  0  0  0
   -3.0880    1.1379    0.5484 N   0  0  0  0  0  0  0  0  0  0  0  0
   -3.5757    0.9962    1.6666 O   0  0  0  0  0  0  0  0  0  0  0  0
   -3.7091    1.4770   -0.4582 O   0  0  0  0  0  0  0  0  0  0  0  0
    1.4240    2.3378    0.6704 N   0  0  0  0  0  0  0  0  0  0  0  0
    2.4852    2.5648    1.2829 N   0  0  0  0  0  0  0  0  0  0  0  0
    2.5355    0.2121   -0.3717 B   0  0  0  0  0  0  0  0  0  0  0  0
    2.8672   -1.0078    0.0247 F   0  0  0  0  0  0  0  0  0  0  0  0
    3.3030    0.8008   -1.2778 F   0  0  0  0  0  0  0  0  0  0  0  0
    3.2397    1.7420    1.3796 F   0  0  0  0  0  0  0  0  0  0  0  0
    1.2197    0.2280    2.4154 F   0  0  0  0  0  0  0  0  0  0  0  0
  1  7  1  0  0  0  0
  2  8  1  6  0  0  0
  2  1  1  0  0  0  0
  2 20  1  0  0  0  0
  3 16  1  6  0  0  0
  3 14  1  0  0  0  0
  3  2  1  0  0  0  0
  4  5  2  0  0  0  0
  4  3  1  0  0  0  0
  5  6  1  0  0  0  0
  6 11  1  0  0  0  0
  6  1  2  0  0  0  0
  9  4  1  0  0  0  0
 10  5  1  0  0  0  0
 11 12  2  0  0  0  0
 13 11  2  0  0  0  0
 14 15  2  0  0  0  0
 15 19  1  0  0  0  0
 16 17  1  0  0  0  0
 18 16  1  0  0  0  0
M  END
