Coordinates from ORCA-job p-NO2-Ph-N2-BF4-B3LYPG-6-31G_dp-scan-d09-49-n400
 OpenBabel08281821153D

 20 19  0  0  1  0  0  0  0  0999 V2000
   -0.9616    0.5176    1.4131 C   0  0  0  0  0  0  0  0  0  0  0  0
    0.4589    0.1822    1.1944 C   0  0  1  0  0  0  0  0  0  0  0  0
    1.1155    0.5528   -0.0716 C   0  0  2  0  0  0  0  0  0  0  0  0
    0.2519    0.8485   -1.1454 C   0  0  0  0  0  0  0  0  0  0  0  0
   -1.1099    1.0039   -0.9635 C   0  0  0  0  0  0  0  0  0  0  0  0
   -1.7025    0.8378    0.3233 C   0  0  0  0  0  0  0  0  0  0  0  0
   -1.3980    0.4300    2.4020 H   0  0  0  0  0  0  0  0  0  0  0  0
    0.3929   -0.9111    0.9067 H   0  0  0  0  0  0  0  0  0  0  0  0
    0.7052    1.0229   -2.1154 H   0  0  0  0  0  0  0  0  0  0  0  0
   -1.7643    1.2777   -1.7848 H   0  0  0  0  0  0  0  0  0  0  0  0
   -3.1534    1.0936    0.4786 N   0  0  0  0  0  0  0  0  0  0  0  0
   -3.6329    0.9281    1.5935 O   0  0  0  0  0  0  0  0  0  0  0  0
   -3.7607    1.4507   -0.5257 O   0  0  0  0  0  0  0  0  0  0  0  0
    1.6599    3.1636    1.9624 N   0  0  0  0  0  0  0  0  0  0  0  0
    2.7609    3.2356    1.9003 N   0  0  0  0  0  0  0  0  0  0  0  0
    2.7668    0.3498   -0.2781 B   0  0  0  0  0  0  0  0  0  0  0  0
    2.9670   -0.9804    0.0933 F   0  0  0  0  0  0  0  0  0  0  0  0
    3.0249    0.5761   -1.6239 F   0  0  0  0  0  0  0  0  0  0  0  0
    3.4127    1.2554    0.5498 F   0  0  0  0  0  0  0  0  0  0  0  0
    1.2099    0.2839    2.3236 F   0  0  0  0  0  0  0  0  0  0  0  0
  1  7  1  0  0  0  0
  2  8  1  6  0  0  0
  2  1  1  0  0  0  0
  2 20  1  0  0  0  0
  3 16  1  6  0  0  0
  3  2  1  0  0  0  0
  4  5  2  0  0  0  0
  4  3  1  0  0  0  0
  5  6  1  0  0  0  0
  6 11  1  0  0  0  0
  6  1  2  0  0  0  0
  9  4  1  0  0  0  0
 10  5  1  0  0  0  0
 11 12  2  0  0  0  0
 13 11  2  0  0  0  0
 15 14  3  0  0  0  0
 16 17  1  0  0  0  0
 16 19  1  0  0  0  0
 18 16  1  0  0  0  0
M  RAD  1   3   2
M  END
