Coordinates from ORCA-job p-NO2-Ph-N2-BF4-B3LYPG-6-31G_dp-scan-d09-49-n400
 OpenBabel08281821153D

 20 20  0  0  1  0  0  0  0  0999 V2000
   -0.9994    0.4356    1.4463 C   0  0  0  0  0  0  0  0  0  0  0  0
    0.4535    0.1103    1.2682 C   0  0  1  0  0  0  0  0  0  0  0  0
    1.1692    0.9512    0.2094 C   0  0  1  0  0  0  0  0  0  0  0  0
    0.2964    1.1999   -0.9849 C   0  0  0  0  0  0  0  0  0  0  0  0
   -1.0451    1.1473   -0.9012 C   0  0  0  0  0  0  0  0  0  0  0  0
   -1.6850    0.8695    0.3797 C   0  0  0  0  0  0  0  0  0  0  0  0
   -1.4800    0.2373    2.3972 H   0  0  0  0  0  0  0  0  0  0  0  0
    0.5401   -0.9308    0.9149 H   0  0  0  0  0  0  0  0  0  0  0  0
    0.7966    1.4475   -1.9139 H   0  0  0  0  0  0  0  0  0  0  0  0
   -1.6812    1.3334   -1.7577 H   0  0  0  0  0  0  0  0  0  0  0  0
   -3.1383    1.0976    0.4965 N   0  0  0  0  0  0  0  0  0  0  0  0
   -3.6670    0.8821    1.5829 O   0  0  0  0  0  0  0  0  0  0  0  0
   -3.7193    1.4904   -0.5137 O   0  0  0  0  0  0  0  0  0  0  0  0
    1.4697    2.3179    0.9032 N   0  0  0  0  0  0  0  0  0  0  0  0
    2.5396    2.6450    1.1720 N   0  0  0  0  0  0  0  0  0  0  0  0
    2.7185    0.4301   -0.1351 B   0  0  0  0  0  0  0  0  0  0  0  0
    2.9609   -0.8205    0.3485 F   0  0  0  0  0  0  0  0  0  0  0  0
    3.0482    0.6348   -1.4451 F   0  0  0  0  0  0  0  0  0  0  0  0
    3.5494    1.4310    0.6870 F   0  0  0  0  0  0  0  0  0  0  0  0
    1.1163    0.2092    2.4787 F   0  0  0  0  0  0  0  0  0  0  0  0
  1  7  1  0  0  0  0
  2  8  1  6  0  0  0
  2  1  1  0  0  0  0
  2 20  1  0  0  0  0
  3 16  1  6  0  0  0
  3 14  1  0  0  0  0
  3  2  1  0  0  0  0
  4  5  2  0  0  0  0
  4  3  1  0  0  0  0
  5  6  1  0  0  0  0
  6 11  1  0  0  0  0
  6  1  2  0  0  0  0
  9  4  1  0  0  0  0
 10  5  1  0  0  0  0
 11 12  2  0  0  0  0
 13 11  2  0  0  0  0
 14 15  2  0  0  0  0
 16 17  1  0  0  0  0
 16 19  1  0  0  0  0
 18 16  1  0  0  0  0
M  RAD  1  15   2
M  END
