Coordinates from ORCA-job p-NO2-Ph-N2-BF4-B3LYPG-6-31G_dp-scan-d09-49-n400
 OpenBabel08281821153D

 20 19  0  0  1  0  0  0  0  0999 V2000
   -0.8371    0.5514    1.4223 C   0  0  0  0  0  0  0  0  0  0  0  0
    0.5574    0.1435    1.1643 C   0  0  1  0  0  0  0  0  0  0  0  0
    1.1911    0.4684   -0.1262 C   0  0  2  0  0  0  0  0  0  0  0  0
    0.3096    0.8049   -1.1742 C   0  0  0  0  0  0  0  0  0  0  0  0
   -1.0359    1.0287   -0.9521 C   0  0  0  0  0  0  0  0  0  0  0  0
   -1.5957    0.8995    0.3539 C   0  0  0  0  0  0  0  0  0  0  0  0
   -1.2463    0.4940    2.4250 H   0  0  0  0  0  0  0  0  0  0  0  0
    0.4368   -0.9499    0.9008 H   0  0  0  0  0  0  0  0  0  0  0  0
    0.7409    0.9493   -2.1590 H   0  0  0  0  0  0  0  0  0  0  0  0
   -1.7012    1.3297   -1.7548 H   0  0  0  0  0  0  0  0  0  0  0  0
   -3.0255    1.2303    0.5525 N   0  0  0  0  0  0  0  0  0  0  0  0
   -3.4767    1.1017    1.6843 O   0  0  0  0  0  0  0  0  0  0  0  0
   -3.6468    1.6079   -0.4358 O   0  0  0  0  0  0  0  0  0  0  0  0
    1.2418    3.1576    1.8727 N   0  0  0  0  0  0  0  0  0  0  0  0
    1.7148    3.9823    2.4356 N   0  0  0  0  0  0  0  0  0  0  0  0
    2.8040    0.1104   -0.4074 B   0  0  0  0  0  0  0  0  0  0  0  0
    2.8296   -1.2628   -0.1265 F   0  0  0  0  0  0  0  0  0  0  0  0
    3.0384    0.3806   -1.7502 F   0  0  0  0  0  0  0  0  0  0  0  0
    3.5956    0.8570    0.4393 F   0  0  0  0  0  0  0  0  0  0  0  0
    1.3481    0.2343    2.2685 F   0  0  0  0  0  0  0  0  0  0  0  0
  1  7  1  0  0  0  0
  2  8  1  6  0  0  0
  2  1  1  0  0  0  0
  2 20  1  0  0  0  0
  3 16  1  6  0  0  0
  3  2  1  0  0  0  0
  4  5  2  0  0  0  0
  4  3  1  0  0  0  0
  5  6  1  0  0  0  0
  6 11  1  0  0  0  0
  6  1  2  0  0  0  0
  9  4  1  0  0  0  0
 10  5  1  0  0  0  0
 11 12  2  0  0  0  0
 13 11  2  0  0  0  0
 14 15  3  0  0  0  0
 16 17  1  0  0  0  0
 16 19  1  0  0  0  0
 18 16  1  0  0  0  0
M  RAD  1   3   2
M  END
