Coordinates from ORCA-job p-NO2-Ph-N2-BF4-B3LYPG-6-31G_dp-scan-d09-49-n400
 OpenBabel08281821153D

 20 20  0  0  1  0  0  0  0  0999 V2000
   -0.9227    0.4952    1.4456 C   0  0  0  0  0  0  0  0  0  0  0  0
    0.5097    0.1118    1.2285 C   0  0  1  0  0  0  0  0  0  0  0  0
    1.2129    0.9290    0.1219 C   0  0  1  0  0  0  0  0  0  0  0  0
    0.2800    1.1086   -1.0690 C   0  0  0  0  0  0  0  0  0  0  0  0
   -1.0548    1.0829   -0.9354 C   0  0  0  0  0  0  0  0  0  0  0  0
   -1.6440    0.8746    0.3832 C   0  0  0  0  0  0  0  0  0  0  0  0
   -1.3663    0.3725    2.4266 H   0  0  0  0  0  0  0  0  0  0  0  0
    0.5394   -0.9535    0.9518 H   0  0  0  0  0  0  0  0  0  0  0  0
    0.7314    1.3591   -2.0237 H   0  0  0  0  0  0  0  0  0  0  0  0
   -1.7199    1.2724   -1.7680 H   0  0  0  0  0  0  0  0  0  0  0  0
   -3.0862    1.1322    0.5486 N   0  0  0  0  0  0  0  0  0  0  0  0
   -3.5728    0.9922    1.6677 O   0  0  0  0  0  0  0  0  0  0  0  0
   -3.7095    1.4666   -0.4582 O   0  0  0  0  0  0  0  0  0  0  0  0
    1.4345    2.3459    0.6555 N   0  0  0  0  0  0  0  0  0  0  0  0
    2.4959    2.5521    1.2898 N   0  0  0  0  0  0  0  0  0  0  0  0
    2.5266    0.2019   -0.3840 B   0  0  0  0  0  0  0  0  0  0  0  0
    2.8379   -1.0316   -0.0127 F   0  0  0  0  0  0  0  0  0  0  0  0
    3.3183    0.8018   -1.2618 F   0  0  0  0  0  0  0  0  0  0  0  0
    3.2069    1.7610    1.4103 F   0  0  0  0  0  0  0  0  0  0  0  0
    1.2257    0.2438    2.4163 F   0  0  0  0  0  0  0  0  0  0  0  0
  1  7  1  0  0  0  0
  2  8  1  6  0  0  0
  2  1  1  0  0  0  0
  2 20  1  0  0  0  0
  3 16  1  6  0  0  0
  3 14  1  0  0  0  0
  3  2  1  0  0  0  0
  4  5  2  0  0  0  0
  4  3  1  0  0  0  0
  5  6  1  0  0  0  0
  6 11  1  0  0  0  0
  6  1  2  0  0  0  0
  9  4  1  0  0  0  0
 10  5  1  0  0  0  0
 11 12  2  0  0  0  0
 13 11  2  0  0  0  0
 14 15  2  0  0  0  0
 15 19  1  0  0  0  0
 16 17  1  0  0  0  0
 18 16  1  0  0  0  0
M  END
