Coordinates from ORCA-job p-NO2-Ph-N2-BF4-B3LYPG-6-31G_dp-scan-d09-49-n400
 OpenBabel08281821153D

 20 20  0  0  1  0  0  0  0  0999 V2000
   -0.9173    0.5022    1.4479 C   0  0  0  0  0  0  0  0  0  0  0  0
    0.5154    0.1233    1.2319 C   0  0  1  0  0  0  0  0  0  0  0  0
    1.2168    0.9340    0.1194 C   0  0  1  0  0  0  0  0  0  0  0  0
    0.2814    1.1114   -1.0697 C   0  0  0  0  0  0  0  0  0  0  0  0
   -1.0534    1.0796   -0.9359 C   0  0  0  0  0  0  0  0  0  0  0  0
   -1.6408    0.8709    0.3830 C   0  0  0  0  0  0  0  0  0  0  0  0
   -1.3604    0.3841    2.4297 H   0  0  0  0  0  0  0  0  0  0  0  0
    0.5502   -0.9456    0.9715 H   0  0  0  0  0  0  0  0  0  0  0  0
    0.7301    1.3715   -2.0233 H   0  0  0  0  0  0  0  0  0  0  0  0
   -1.7193    1.2706   -1.7674 H   0  0  0  0  0  0  0  0  0  0  0  0
   -3.0846    1.1199    0.5480 N   0  0  0  0  0  0  0  0  0  0  0  0
   -3.5698    0.9834    1.6682 O   0  0  0  0  0  0  0  0  0  0  0  0
   -3.7114    1.4436   -0.4602 O   0  0  0  0  0  0  0  0  0  0  0  0
    1.4533    2.3589    0.6324 N   0  0  0  0  0  0  0  0  0  0  0  0
    2.5158    2.5340    1.2983 N   0  0  0  0  0  0  0  0  0  0  0  0
    2.5121    0.1875   -0.4008 B   0  0  0  0  0  0  0  0  0  0  0  0
    2.7751   -1.0736   -0.0867 F   0  0  0  0  0  0  0  0  0  0  0  0
    3.3520    0.8043   -1.2210 F   0  0  0  0  0  0  0  0  0  0  0  0
    3.1632    1.7864    1.4479 F   0  0  0  0  0  0  0  0  0  0  0  0
    1.2345    0.2723    2.4197 F   0  0  0  0  0  0  0  0  0  0  0  0
  1  7  1  0  0  0  0
  2  8  1  6  0  0  0
  2  1  1  0  0  0  0
  2 20  1  0  0  0  0
  3 16  1  6  0  0  0
  3 14  1  0  0  0  0
  3  2  1  0  0  0  0
  4  5  2  0  0  0  0
  4  3  1  0  0  0  0
  5  6  1  0  0  0  0
  6 11  1  0  0  0  0
  6  1  2  0  0  0  0
  9  4  1  0  0  0  0
 10  5  1  0  0  0  0
 11 12  2  0  0  0  0
 13 11  2  0  0  0  0
 14 15  2  0  0  0  0
 15 19  1  0  0  0  0
 16 17  1  0  0  0  0
 18 16  1  0  0  0  0
M  END
