Coordinates from ORCA-job p-NO2-Ph-N2-BF4-B3LYPG-6-31G_dp-scan-d09-49-n400
 OpenBabel08281821153D

 20 19  0  0  1  0  0  0  0  0999 V2000
   -0.9338    0.4796    1.4232 C   0  0  0  0  0  0  0  0  0  0  0  0
    0.4775    0.1145    1.1903 C   0  0  1  0  0  0  0  0  0  0  0  0
    1.1396    0.5112   -0.0646 C   0  0  2  0  0  0  0  0  0  0  0  0
    0.2812    0.8631   -1.1269 C   0  0  0  0  0  0  0  0  0  0  0  0
   -1.0755    1.0436   -0.9370 C   0  0  0  0  0  0  0  0  0  0  0  0
   -1.6689    0.8520    0.3467 C   0  0  0  0  0  0  0  0  0  0  0  0
   -1.3706    0.3714    2.4098 H   0  0  0  0  0  0  0  0  0  0  0  0
    0.3866   -0.9686    0.8754 H   0  0  0  0  0  0  0  0  0  0  0  0
    0.7375    1.0597   -2.0912 H   0  0  0  0  0  0  0  0  0  0  0  0
   -1.7252    1.3581   -1.7473 H   0  0  0  0  0  0  0  0  0  0  0  0
   -3.1122    1.1394    0.5144 N   0  0  0  0  0  0  0  0  0  0  0  0
   -3.5924    0.9573    1.6267 O   0  0  0  0  0  0  0  0  0  0  0  0
   -3.7143    1.5379   -0.4775 O   0  0  0  0  0  0  0  0  0  0  0  0
    1.6052    3.0682    1.7049 N   0  0  0  0  0  0  0  0  0  0  0  0
    2.3719    3.8117    1.9870 N   0  0  0  0  0  0  0  0  0  0  0  0
    2.7790    0.2525   -0.2876 B   0  0  0  0  0  0  0  0  0  0  0  0
    2.8968   -1.1184   -0.0367 F   0  0  0  0  0  0  0  0  0  0  0  0
    3.0535    0.5776   -1.6105 F   0  0  0  0  0  0  0  0  0  0  0  0
    3.4735    1.0370    0.6141 F   0  0  0  0  0  0  0  0  0  0  0  0
    1.2335    0.1712    2.3198 F   0  0  0  0  0  0  0  0  0  0  0  0
  1  7  1  0  0  0  0
  2  8  1  6  0  0  0
  2  1  1  0  0  0  0
  2 20  1  0  0  0  0
  3 16  1  6  0  0  0
  3  2  1  0  0  0  0
  4  5  2  0  0  0  0
  4  3  1  0  0  0  0
  5  6  1  0  0  0  0
  6 11  1  0  0  0  0
  6  1  2  0  0  0  0
  9  4  1  0  0  0  0
 10  5  1  0  0  0  0
 11 12  2  0  0  0  0
 13 11  2  0  0  0  0
 14 15  3  0  0  0  0
 16 17  1  0  0  0  0
 16 19  1  0  0  0  0
 18 16  1  0  0  0  0
M  RAD  1   3   2
M  END
