Coordinates from ORCA-job p-NO2-Ph-N2-BF4-B3LYPG-6-31G_dp-scan-d09-49-n400
 OpenBabel08281821153D

 20 19  0  0  1  0  0  0  0  0999 V2000
   -0.9425    0.5093    1.4197 C   0  0  0  0  0  0  0  0  0  0  0  0
    0.4736    0.1598    1.1943 C   0  0  1  0  0  0  0  0  0  0  0  0
    1.1315    0.5386   -0.0686 C   0  0  2  0  0  0  0  0  0  0  0  0
    0.2687    0.8554   -1.1374 C   0  0  0  0  0  0  0  0  0  0  0  0
   -1.0908    1.0225   -0.9511 C   0  0  0  0  0  0  0  0  0  0  0  0
   -1.6824    0.8490    0.3353 C   0  0  0  0  0  0  0  0  0  0  0  0
   -1.3777    0.4160    2.4086 H   0  0  0  0  0  0  0  0  0  0  0  0
    0.3966   -0.9300    0.8985 H   0  0  0  0  0  0  0  0  0  0  0  0
    0.7222    1.0362   -2.1062 H   0  0  0  0  0  0  0  0  0  0  0  0
   -1.7441    1.3119   -1.7680 H   0  0  0  0  0  0  0  0  0  0  0  0
   -3.1298    1.1196    0.4968 N   0  0  0  0  0  0  0  0  0  0  0  0
   -3.6085    0.9495    1.6115 O   0  0  0  0  0  0  0  0  0  0  0  0
   -3.7359    1.4923   -0.5026 O   0  0  0  0  0  0  0  0  0  0  0  0
    1.5338    3.1198    1.8512 N   0  0  0  0  0  0  0  0  0  0  0  0
    2.5935    3.4214    1.9327 N   0  0  0  0  0  0  0  0  0  0  0  0
    2.7778    0.3086   -0.2858 B   0  0  0  0  0  0  0  0  0  0  0  0
    2.9394   -1.0405    0.0395 F   0  0  0  0  0  0  0  0  0  0  0  0
    3.0365    0.5699   -1.6257 F   0  0  0  0  0  0  0  0  0  0  0  0
    3.4528    1.1640    0.5671 F   0  0  0  0  0  0  0  0  0  0  0  0
    1.2283    0.2455    2.3230 F   0  0  0  0  0  0  0  0  0  0  0  0
  1  7  1  0  0  0  0
  2  8  1  6  0  0  0
  2  1  1  0  0  0  0
  2 20  1  0  0  0  0
  3 16  1  6  0  0  0
  3  2  1  0  0  0  0
  4  5  2  0  0  0  0
  4  3  1  0  0  0  0
  5  6  1  0  0  0  0
  6 11  1  0  0  0  0
  6  1  2  0  0  0  0
  9  4  1  0  0  0  0
 10  5  1  0  0  0  0
 11 12  2  0  0  0  0
 13 11  2  0  0  0  0
 14 15  3  0  0  0  0
 16 17  1  0  0  0  0
 16 19  1  0  0  0  0
 18 16  1  0  0  0  0
M  RAD  1   3   2
M  END
