Coordinates from ORCA-job p-NO2-Ph-N2-BF4-B3LYPG-6-31G_dp-scan-d09-49-n400
 OpenBabel08281821153D

 20 20  0  0  1  0  0  0  0  0999 V2000
   -0.9166    0.5032    1.4484 C   0  0  0  0  0  0  0  0  0  0  0  0
    0.5162    0.1252    1.2325 C   0  0  1  0  0  0  0  0  0  0  0  0
    1.2174    0.9349    0.1192 C   0  0  1  0  0  0  0  0  0  0  0  0
    0.2817    1.1119   -1.0696 C   0  0  0  0  0  0  0  0  0  0  0  0
   -1.0532    1.0790   -0.9359 C   0  0  0  0  0  0  0  0  0  0  0  0
   -1.6403    0.8703    0.3830 C   0  0  0  0  0  0  0  0  0  0  0  0
   -1.3596    0.3859    2.4302 H   0  0  0  0  0  0  0  0  0  0  0  0
    0.5519   -0.9443    0.9746 H   0  0  0  0  0  0  0  0  0  0  0  0
    0.7300    1.3736   -2.0231 H   0  0  0  0  0  0  0  0  0  0  0  0
   -1.7192    1.2703   -1.7673 H   0  0  0  0  0  0  0  0  0  0  0  0
   -3.0845    1.1178    0.5479 N   0  0  0  0  0  0  0  0  0  0  0  0
   -3.5695    0.9818    1.6682 O   0  0  0  0  0  0  0  0  0  0  0  0
   -3.7118    1.4397   -0.4606 O   0  0  0  0  0  0  0  0  0  0  0  0
    1.4563    2.3608    0.6288 N   0  0  0  0  0  0  0  0  0  0  0  0
    2.5192    2.5316    1.2992 N   0  0  0  0  0  0  0  0  0  0  0  0
    2.5099    0.1854   -0.4031 B   0  0  0  0  0  0  0  0  0  0  0  0
    2.7644   -1.0800   -0.0993 F   0  0  0  0  0  0  0  0  0  0  0  0
    3.3579    0.8046   -1.2132 F   0  0  0  0  0  0  0  0  0  0  0  0
    3.1573    1.7900    1.4526 F   0  0  0  0  0  0  0  0  0  0  0  0
    1.2357    0.2769    2.4204 F   0  0  0  0  0  0  0  0  0  0  0  0
  1  7  1  0  0  0  0
  2  8  1  6  0  0  0
  2  1  1  0  0  0  0
  2 20  1  0  0  0  0
  3 16  1  6  0  0  0
  3 14  1  0  0  0  0
  3  2  1  0  0  0  0
  4  5  2  0  0  0  0
  4  3  1  0  0  0  0
  5  6  1  0  0  0  0
  6 11  1  0  0  0  0
  6  1  2  0  0  0  0
  9  4  1  0  0  0  0
 10  5  1  0  0  0  0
 11 12  2  0  0  0  0
 13 11  2  0  0  0  0
 14 15  2  0  0  0  0
 15 19  1  0  0  0  0
 16 17  1  0  0  0  0
 18 16  1  0  0  0  0
M  END
