Coordinates from ORCA-job p-NO2-Ph-N2-BF4-B3LYPG-6-31G_dp-scan-d09-49-n400
 OpenBabel08281821153D

 20 19  0  0  1  0  0  0  0  0999 V2000
   -0.8586    0.5392    1.4217 C   0  0  0  0  0  0  0  0  0  0  0  0
    0.5396    0.1399    1.1689 C   0  0  1  0  0  0  0  0  0  0  0  0
    1.1786    0.4775   -0.1154 C   0  0  2  0  0  0  0  0  0  0  0  0
    0.3012    0.8136   -1.1671 C   0  0  0  0  0  0  0  0  0  0  0  0
   -1.0468    1.0281   -0.9514 C   0  0  0  0  0  0  0  0  0  0  0  0
   -1.6129    0.8894    0.3510 C   0  0  0  0  0  0  0  0  0  0  0  0
   -1.2732    0.4735    2.4216 H   0  0  0  0  0  0  0  0  0  0  0  0
    0.4253   -0.9523    0.8977 H   0  0  0  0  0  0  0  0  0  0  0  0
    0.7374    0.9664   -2.1485 H   0  0  0  0  0  0  0  0  0  0  0  0
   -1.7094    1.3293   -1.7563 H   0  0  0  0  0  0  0  0  0  0  0  0
   -3.0458    1.2107    0.5432 N   0  0  0  0  0  0  0  0  0  0  0  0
   -3.5027    1.0734    1.6716 O   0  0  0  0  0  0  0  0  0  0  0  0
   -3.6638    1.5894   -0.4467 O   0  0  0  0  0  0  0  0  0  0  0  0
    1.3367    3.1333    1.8306 N   0  0  0  0  0  0  0  0  0  0  0  0
    1.8600    3.9403    2.3743 N   0  0  0  0  0  0  0  0  0  0  0  0
    2.7983    0.1434   -0.3839 B   0  0  0  0  0  0  0  0  0  0  0  0
    2.8490   -1.2276   -0.0996 F   0  0  0  0  0  0  0  0  0  0  0  0
    3.0392    0.4159   -1.7252 F   0  0  0  0  0  0  0  0  0  0  0  0
    3.5676    0.9084    0.4681 F   0  0  0  0  0  0  0  0  0  0  0  0
    1.3233    0.2266    2.2783 F   0  0  0  0  0  0  0  0  0  0  0  0
  1  7  1  0  0  0  0
  2  8  1  6  0  0  0
  2  1  1  0  0  0  0
  2 20  1  0  0  0  0
  3 16  1  6  0  0  0
  3  2  1  0  0  0  0
  4  5  2  0  0  0  0
  4  3  1  0  0  0  0
  5  6  1  0  0  0  0
  6 11  1  0  0  0  0
  6  1  2  0  0  0  0
  9  4  1  0  0  0  0
 10  5  1  0  0  0  0
 11 12  2  0  0  0  0
 13 11  2  0  0  0  0
 14 15  3  0  0  0  0
 16 17  1  0  0  0  0
 16 19  1  0  0  0  0
 18 16  1  0  0  0  0
M  RAD  1   3   2
M  END
