Coordinates from ORCA-job p-NO2-Ph-N2-BF4-B3LYPG-6-31G_dp-scan-d09-49-n400
 OpenBabel08281821153D

 20 19  0  0  1  0  0  0  0  0999 V2000
   -0.9693    0.5146    1.4136 C   0  0  0  0  0  0  0  0  0  0  0  0
    0.4526    0.1835    1.1980 C   0  0  1  0  0  0  0  0  0  0  0  0
    1.1113    0.5583   -0.0655 C   0  0  2  0  0  0  0  0  0  0  0  0
    0.2498    0.8530   -1.1411 C   0  0  0  0  0  0  0  0  0  0  0  0
   -1.1130    1.0046   -0.9624 C   0  0  0  0  0  0  0  0  0  0  0  0
   -1.7082    0.8349    0.3225 C   0  0  0  0  0  0  0  0  0  0  0  0
   -1.4080    0.4238    2.4013 H   0  0  0  0  0  0  0  0  0  0  0  0
    0.3895   -0.9092    0.9069 H   0  0  0  0  0  0  0  0  0  0  0  0
    0.7051    1.0302   -2.1097 H   0  0  0  0  0  0  0  0  0  0  0  0
   -1.7659    1.2780   -1.7849 H   0  0  0  0  0  0  0  0  0  0  0  0
   -3.1603    1.0867    0.4746 N   0  0  0  0  0  0  0  0  0  0  0  0
   -3.6421    0.9183    1.5881 O   0  0  0  0  0  0  0  0  0  0  0  0
   -3.7660    1.4439   -0.5306 O   0  0  0  0  0  0  0  0  0  0  0  0
    1.6995    3.1621    1.9475 N   0  0  0  0  0  0  0  0  0  0  0  0
    2.8012    3.1703    1.8527 N   0  0  0  0  0  0  0  0  0  0  0  0
    2.7645    0.3665   -0.2668 B   0  0  0  0  0  0  0  0  0  0  0  0
    2.9784   -0.9591    0.1106 F   0  0  0  0  0  0  0  0  0  0  0  0
    3.0253    0.5916   -1.6120 F   0  0  0  0  0  0  0  0  0  0  0  0
    3.3983    1.2833    0.5607 F   0  0  0  0  0  0  0  0  0  0  0  0
    1.2002    0.2834    2.3295 F   0  0  0  0  0  0  0  0  0  0  0  0
  1  7  1  0  0  0  0
  2  8  1  6  0  0  0
  2  1  1  0  0  0  0
  2 20  1  0  0  0  0
  3 16  1  6  0  0  0
  3  2  1  0  0  0  0
  4  5  2  0  0  0  0
  4  3  1  0  0  0  0
  5  6  1  0  0  0  0
  6 11  1  0  0  0  0
  6  1  2  0  0  0  0
  9  4  1  0  0  0  0
 10  5  1  0  0  0  0
 11 12  2  0  0  0  0
 13 11  2  0  0  0  0
 15 14  3  0  0  0  0
 16 17  1  0  0  0  0
 16 19  1  0  0  0  0
 18 16  1  0  0  0  0
M  RAD  1   3   2
M  END
