Coordinates from ORCA-job p-NO2-Ph-N2-BF4-B3LYPG-6-31G_dp-scan-d09-49-n400
 OpenBabel08281821153D

 20 19  0  0  1  0  0  0  0  0999 V2000
   -0.9829    0.4894    1.4275 C   0  0  0  0  0  0  0  0  0  0  0  0
    0.4416    0.1648    1.2193 C   0  0  1  0  0  0  0  0  0  0  0  0
    1.1123    0.5838   -0.0234 C   0  0  2  0  0  0  0  0  0  0  0  0
    0.2646    0.9001   -1.1026 C   0  0  0  0  0  0  0  0  0  0  0  0
   -1.1009    1.0436   -0.9354 C   0  0  0  0  0  0  0  0  0  0  0  0
   -1.7098    0.8398    0.3375 C   0  0  0  0  0  0  0  0  0  0  0  0
   -1.4330    0.3687    2.4068 H   0  0  0  0  0  0  0  0  0  0  0  0
    0.3829   -0.9196    0.8982 H   0  0  0  0  0  0  0  0  0  0  0  0
    0.7296    1.1055   -2.0608 H   0  0  0  0  0  0  0  0  0  0  0  0
   -1.7449    1.3380   -1.7578 H   0  0  0  0  0  0  0  0  0  0  0  0
   -3.1637    1.0872    0.4804 N   0  0  0  0  0  0  0  0  0  0  0  0
   -3.6569    0.8902    1.5840 O   0  0  0  0  0  0  0  0  0  0  0  0
   -3.7587    1.4693   -0.5219 O   0  0  0  0  0  0  0  0  0  0  0  0
    1.6843    3.0494    1.6489 N   0  0  0  0  0  0  0  0  0  0  0  0
    2.7880    2.9389    1.6033 N   0  0  0  0  0  0  0  0  0  0  0  0
    2.7699    0.4180   -0.2053 B   0  0  0  0  0  0  0  0  0  0  0  0
    3.0179   -0.8937    0.1880 F   0  0  0  0  0  0  0  0  0  0  0  0
    3.0485    0.6481   -1.5441 F   0  0  0  0  0  0  0  0  0  0  0  0
    3.3774    1.3647    0.6295 F   0  0  0  0  0  0  0  0  0  0  0  0
    1.1766    0.2328    2.3609 F   0  0  0  0  0  0  0  0  0  0  0  0
  1  7  1  0  0  0  0
  2  8  1  6  0  0  0
  2  1  1  0  0  0  0
  2 20  1  0  0  0  0
  3 16  1  6  0  0  0
  3  2  1  0  0  0  0
  4  5  2  0  0  0  0
  4  3  1  0  0  0  0
  5  6  1  0  0  0  0
  6 11  1  0  0  0  0
  6  1  2  0  0  0  0
  9  4  1  0  0  0  0
 10  5  1  0  0  0  0
 11 12  2  0  0  0  0
 13 11  2  0  0  0  0
 15 14  3  0  0  0  0
 16 17  1  0  0  0  0
 16 19  1  0  0  0  0
 18 16  1  0  0  0  0
M  RAD  1   3   2
M  END
