Coordinates from ORCA-job p-NO2-Ph-N2-BF4-B3LYPG-6-31G_dp-scan-d09-49-n400
 OpenBabel08281821153D

 20 19  0  0  1  0  0  0  0  0999 V2000
   -0.9272    0.4889    1.4226 C   0  0  0  0  0  0  0  0  0  0  0  0
    0.4845    0.1268    1.1901 C   0  0  1  0  0  0  0  0  0  0  0  0
    1.1439    0.5156   -0.0690 C   0  0  2  0  0  0  0  0  0  0  0  0
    0.2829    0.8609   -1.1313 C   0  0  0  0  0  0  0  0  0  0  0  0
   -1.0739    1.0397   -0.9403 C   0  0  0  0  0  0  0  0  0  0  0  0
   -1.6651    0.8530    0.3451 C   0  0  0  0  0  0  0  0  0  0  0  0
   -1.3622    0.3858    2.4106 H   0  0  0  0  0  0  0  0  0  0  0  0
    0.3978   -0.9586    0.8825 H   0  0  0  0  0  0  0  0  0  0  0  0
    0.7371    1.0520   -2.0977 H   0  0  0  0  0  0  0  0  0  0  0  0
   -1.7254    1.3484   -1.7513 H   0  0  0  0  0  0  0  0  0  0  0  0
   -3.1090    1.1369    0.5133 N   0  0  0  0  0  0  0  0  0  0  0  0
   -3.5873    0.9590    1.6271 O   0  0  0  0  0  0  0  0  0  0  0  0
   -3.7136    1.5287   -0.4798 O   0  0  0  0  0  0  0  0  0  0  0  0
    1.5842    3.0904    1.7379 N   0  0  0  0  0  0  0  0  0  0  0  0
    2.3396    3.8373    2.0412 N   0  0  0  0  0  0  0  0  0  0  0  0
    2.7790    0.2369   -0.3017 B   0  0  0  0  0  0  0  0  0  0  0  0
    2.8689   -1.1387   -0.0575 F   0  0  0  0  0  0  0  0  0  0  0  0
    3.0507    0.5609   -1.6253 F   0  0  0  0  0  0  0  0  0  0  0  0
    3.4964    1.0009    0.5979 F   0  0  0  0  0  0  0  0  0  0  0  0
    1.2417    0.1938    2.3185 F   0  0  0  0  0  0  0  0  0  0  0  0
  1  7  1  0  0  0  0
  2  8  1  6  0  0  0
  2  1  1  0  0  0  0
  2 20  1  0  0  0  0
  3 16  1  6  0  0  0
  3  2  1  0  0  0  0
  4  5  2  0  0  0  0
  4  3  1  0  0  0  0
  5  6  1  0  0  0  0
  6 11  1  0  0  0  0
  6  1  2  0  0  0  0
  9  4  1  0  0  0  0
 10  5  1  0  0  0  0
 11 12  2  0  0  0  0
 13 11  2  0  0  0  0
 14 15  3  0  0  0  0
 16 17  1  0  0  0  0
 16 19  1  0  0  0  0
 18 16  1  0  0  0  0
M  RAD  1   3   2
M  END
