Coordinates from ORCA-job p-NO2-Ph-N2-BF4-B3LYPG-6-31G_dp-scan-d09-49-n400
 OpenBabel08281821153D

 20 19  0  0  1  0  0  0  0  0999 V2000
   -0.9566    0.5182    1.4134 C   0  0  0  0  0  0  0  0  0  0  0  0
    0.4629    0.1797    1.1929 C   0  0  1  0  0  0  0  0  0  0  0  0
    1.1187    0.5492   -0.0738 C   0  0  2  0  0  0  0  0  0  0  0  0
    0.2543    0.8472   -1.1464 C   0  0  0  0  0  0  0  0  0  0  0  0
   -1.1069    1.0054   -0.9628 C   0  0  0  0  0  0  0  0  0  0  0  0
   -1.6982    0.8401    0.3247 C   0  0  0  0  0  0  0  0  0  0  0  0
   -1.3919    0.4314    2.4029 H   0  0  0  0  0  0  0  0  0  0  0  0
    0.3947   -0.9134    0.9056 H   0  0  0  0  0  0  0  0  0  0  0  0
    0.7068    1.0208   -2.1169 H   0  0  0  0  0  0  0  0  0  0  0  0
   -1.7618    1.2807   -1.7832 H   0  0  0  0  0  0  0  0  0  0  0  0
   -3.1483    1.0992    0.4820 N   0  0  0  0  0  0  0  0  0  0  0  0
   -3.6268    0.9346    1.5975 O   0  0  0  0  0  0  0  0  0  0  0  0
   -3.7562    1.4578   -0.5214 O   0  0  0  0  0  0  0  0  0  0  0  0
    1.6305    3.1593    1.9586 N   0  0  0  0  0  0  0  0  0  0  0  0
    2.7290    3.2753    1.9220 N   0  0  0  0  0  0  0  0  0  0  0  0
    2.7688    0.3398   -0.2833 B   0  0  0  0  0  0  0  0  0  0  0  0
    2.9616   -0.9932    0.0832 F   0  0  0  0  0  0  0  0  0  0  0  0
    3.0255    0.5682   -1.6292 F   0  0  0  0  0  0  0  0  0  0  0  0
    3.4213    1.2382    0.5457 F   0  0  0  0  0  0  0  0  0  0  0  0
    1.2155    0.2803    2.3213 F   0  0  0  0  0  0  0  0  0  0  0  0
  1  7  1  0  0  0  0
  2  8  1  6  0  0  0
  2  1  1  0  0  0  0
  2 20  1  0  0  0  0
  3 16  1  6  0  0  0
  3  2  1  0  0  0  0
  4  5  2  0  0  0  0
  4  3  1  0  0  0  0
  5  6  1  0  0  0  0
  6 11  1  0  0  0  0
  6  1  2  0  0  0  0
  9  4  1  0  0  0  0
 10  5  1  0  0  0  0
 11 12  2  0  0  0  0
 13 11  2  0  0  0  0
 15 14  3  0  0  0  0
 16 17  1  0  0  0  0
 16 19  1  0  0  0  0
 18 16  1  0  0  0  0
M  RAD  1   3   2
M  END
