Coordinates from ORCA-job p-NO2-Ph-N2-BF4-B3LYPG-6-31G_dp-scan-d09-49-n400
 OpenBabel08281821153D

 20 19  0  0  1  0  0  0  0  0999 V2000
   -0.9305    0.5043    1.4190 C   0  0  0  0  0  0  0  0  0  0  0  0
    0.4823    0.1453    1.1886 C   0  0  1  0  0  0  0  0  0  0  0  0
    1.1388    0.5232   -0.0753 C   0  0  2  0  0  0  0  0  0  0  0  0
    0.2751    0.8510   -1.1404 C   0  0  0  0  0  0  0  0  0  0  0  0
   -1.0825    1.0266   -0.9497 C   0  0  0  0  0  0  0  0  0  0  0  0
   -1.6713    0.8526    0.3381 C   0  0  0  0  0  0  0  0  0  0  0  0
   -1.3636    0.4111    2.4088 H   0  0  0  0  0  0  0  0  0  0  0  0
    0.3979   -0.9433    0.8910 H   0  0  0  0  0  0  0  0  0  0  0  0
    0.7273    1.0319   -2.1097 H   0  0  0  0  0  0  0  0  0  0  0  0
   -1.7362    1.3232   -1.7636 H   0  0  0  0  0  0  0  0  0  0  0  0
   -3.1162    1.1328    0.5051 N   0  0  0  0  0  0  0  0  0  0  0  0
   -3.5925    0.9639    1.6210 O   0  0  0  0  0  0  0  0  0  0  0  0
   -3.7230    1.5125   -0.4913 O   0  0  0  0  0  0  0  0  0  0  0  0
    1.5220    3.1033    1.8472 N   0  0  0  0  0  0  0  0  0  0  0  0
    2.4705    3.6455    2.0101 N   0  0  0  0  0  0  0  0  0  0  0  0
    2.7792    0.2679   -0.3022 B   0  0  0  0  0  0  0  0  0  0  0  0
    2.9081   -1.0923   -0.0035 F   0  0  0  0  0  0  0  0  0  0  0  0
    3.0389    0.5467   -1.6386 F   0  0  0  0  0  0  0  0  0  0  0  0
    3.4775    1.0888    0.5632 F   0  0  0  0  0  0  0  0  0  0  0  0
    1.2413    0.2238    2.3150 F   0  0  0  0  0  0  0  0  0  0  0  0
  1  7  1  0  0  0  0
  2  8  1  6  0  0  0
  2  1  1  0  0  0  0
  2 20  1  0  0  0  0
  3 16  1  6  0  0  0
  3  2  1  0  0  0  0
  4  5  2  0  0  0  0
  4  3  1  0  0  0  0
  5  6  1  0  0  0  0
  6 11  1  0  0  0  0
  6  1  2  0  0  0  0
  9  4  1  0  0  0  0
 10  5  1  0  0  0  0
 11 12  2  0  0  0  0
 13 11  2  0  0  0  0
 14 15  3  0  0  0  0
 16 17  1  0  0  0  0
 16 19  1  0  0  0  0
 18 16  1  0  0  0  0
M  RAD  1   3   2
M  END
