Coordinates from ORCA-job p-NO2-Ph-N2-BF4-B3LYPG-6-31G_dp-scan-d09-49-n400
 OpenBabel08281821153D

 20 19  0  0  1  0  0  0  0  0999 V2000
   -0.9191    0.4966    1.4222 C   0  0  0  0  0  0  0  0  0  0  0  0
    0.4916    0.1327    1.1882 C   0  0  1  0  0  0  0  0  0  0  0  0
    1.1483    0.5130   -0.0749 C   0  0  2  0  0  0  0  0  0  0  0  0
    0.2848    0.8543   -1.1365 C   0  0  0  0  0  0  0  0  0  0  0  0
   -1.0712    1.0358   -0.9429 C   0  0  0  0  0  0  0  0  0  0  0  0
   -1.6594    0.8558    0.3447 C   0  0  0  0  0  0  0  0  0  0  0  0
   -1.3518    0.3990    2.4118 H   0  0  0  0  0  0  0  0  0  0  0  0
    0.4041   -0.9544    0.8865 H   0  0  0  0  0  0  0  0  0  0  0  0
    0.7367    1.0395   -2.1052 H   0  0  0  0  0  0  0  0  0  0  0  0
   -1.7245    1.3413   -1.7538 H   0  0  0  0  0  0  0  0  0  0  0  0
   -3.1027    1.1418    0.5151 N   0  0  0  0  0  0  0  0  0  0  0  0
   -3.5784    0.9694    1.6308 O   0  0  0  0  0  0  0  0  0  0  0  0
   -3.7093    1.5298   -0.4783 O   0  0  0  0  0  0  0  0  0  0  0  0
    1.5525    3.1094    1.7645 N   0  0  0  0  0  0  0  0  0  0  0  0
    2.2939    3.8616    2.0882 N   0  0  0  0  0  0  0  0  0  0  0  0
    2.7805    0.2225   -0.3138 B   0  0  0  0  0  0  0  0  0  0  0  0
    2.8547   -1.1560   -0.0759 F   0  0  0  0  0  0  0  0  0  0  0  0
    3.0499    0.5484   -1.6376 F   0  0  0  0  0  0  0  0  0  0  0  0
    3.5106    0.9726    0.5853 F   0  0  0  0  0  0  0  0  0  0  0  0
    1.2517    0.2057    2.3144 F   0  0  0  0  0  0  0  0  0  0  0  0
  1  7  1  0  0  0  0
  2  8  1  6  0  0  0
  2  1  1  0  0  0  0
  2 20  1  0  0  0  0
  3 16  1  6  0  0  0
  3  2  1  0  0  0  0
  4  5  2  0  0  0  0
  4  3  1  0  0  0  0
  5  6  1  0  0  0  0
  6 11  1  0  0  0  0
  6  1  2  0  0  0  0
  9  4  1  0  0  0  0
 10  5  1  0  0  0  0
 11 12  2  0  0  0  0
 13 11  2  0  0  0  0
 14 15  3  0  0  0  0
 16 17  1  0  0  0  0
 16 19  1  0  0  0  0
 18 16  1  0  0  0  0
M  RAD  1   3   2
M  END
