Coordinates from ORCA-job p-NO2-Ph-N2-BF4-B3LYPG-6-31G_dp-scan-d09-49-n400
 OpenBabel08281821153D

 20 19  0  0  1  0  0  0  0  0999 V2000
   -0.9651    0.5168    1.4131 C   0  0  0  0  0  0  0  0  0  0  0  0
    0.4561    0.1835    1.1958 C   0  0  1  0  0  0  0  0  0  0  0  0
    1.1134    0.5554   -0.0694 C   0  0  2  0  0  0  0  0  0  0  0  0
    0.2506    0.8500   -1.1440 C   0  0  0  0  0  0  0  0  0  0  0  0
   -1.1117    1.0036   -0.9635 C   0  0  0  0  0  0  0  0  0  0  0  0
   -1.7053    0.8363    0.3226 C   0  0  0  0  0  0  0  0  0  0  0  0
   -1.4024    0.4281    2.4015 H   0  0  0  0  0  0  0  0  0  0  0  0
    0.3916   -0.9097    0.9072 H   0  0  0  0  0  0  0  0  0  0  0  0
    0.7046    1.0253   -2.1136 H   0  0  0  0  0  0  0  0  0  0  0  0
   -1.7656    1.2766   -1.7854 H   0  0  0  0  0  0  0  0  0  0  0  0
   -3.1568    1.0900    0.4765 N   0  0  0  0  0  0  0  0  0  0  0  0
   -3.6372    0.9235    1.5909 O   0  0  0  0  0  0  0  0  0  0  0  0
   -3.7635    1.4465   -0.5283 O   0  0  0  0  0  0  0  0  0  0  0  0
    1.6793    3.1647    1.9605 N   0  0  0  0  0  0  0  0  0  0  0  0
    2.7812    3.2078    1.8827 N   0  0  0  0  0  0  0  0  0  0  0  0
    2.7655    0.3569   -0.2738 B   0  0  0  0  0  0  0  0  0  0  0  0
    2.9712   -0.9714    0.1004 F   0  0  0  0  0  0  0  0  0  0  0  0
    3.0246    0.5822   -1.6195 F   0  0  0  0  0  0  0  0  0  0  0  0
    3.4066    1.2673    0.5535 F   0  0  0  0  0  0  0  0  0  0  0  0
    1.2057    0.2852    2.3259 F   0  0  0  0  0  0  0  0  0  0  0  0
  1  7  1  0  0  0  0
  2  8  1  6  0  0  0
  2  1  1  0  0  0  0
  2 20  1  0  0  0  0
  3 16  1  6  0  0  0
  3  2  1  0  0  0  0
  4  5  2  0  0  0  0
  4  3  1  0  0  0  0
  5  6  1  0  0  0  0
  6 11  1  0  0  0  0
  6  1  2  0  0  0  0
  9  4  1  0  0  0  0
 10  5  1  0  0  0  0
 11 12  2  0  0  0  0
 13 11  2  0  0  0  0
 15 14  3  0  0  0  0
 16 17  1  0  0  0  0
 16 19  1  0  0  0  0
 18 16  1  0  0  0  0
M  RAD  1   3   2
M  END
