Coordinates from ORCA-job p-NO2-Ph-N2-BF4-B3LYPG-6-31G_dp-scan-d09-49-n400
 OpenBabel08281821153D

 20 19  0  0  1  0  0  0  0  0999 V2000
   -0.9831    0.4863    1.4294 C   0  0  0  0  0  0  0  0  0  0  0  0
    0.4415    0.1618    1.2217 C   0  0  1  0  0  0  0  0  0  0  0  0
    1.1136    0.5878   -0.0178 C   0  0  2  0  0  0  0  0  0  0  0  0
    0.2677    0.9072   -1.0973 C   0  0  0  0  0  0  0  0  0  0  0  0
   -1.0981    1.0494   -0.9315 C   0  0  0  0  0  0  0  0  0  0  0  0
   -1.7086    0.8413    0.3399 C   0  0  0  0  0  0  0  0  0  0  0  0
   -1.4345    0.3617    2.4075 H   0  0  0  0  0  0  0  0  0  0  0  0
    0.3835   -0.9216    0.8975 H   0  0  0  0  0  0  0  0  0  0  0  0
    0.7337    1.1165   -2.0542 H   0  0  0  0  0  0  0  0  0  0  0  0
   -1.7411    1.3466   -1.7537 H   0  0  0  0  0  0  0  0  0  0  0  0
   -3.1625    1.0886    0.4820 N   0  0  0  0  0  0  0  0  0  0  0  0
   -3.6570    0.8883    1.5845 O   0  0  0  0  0  0  0  0  0  0  0  0
   -3.7563    1.4739   -0.5198 O   0  0  0  0  0  0  0  0  0  0  0  0
    1.6708    3.0295    1.6062 N   0  0  0  0  0  0  0  0  0  0  0  0
    2.7761    2.9214    1.5768 N   0  0  0  0  0  0  0  0  0  0  0  0
    2.7708    0.4215   -0.1988 B   0  0  0  0  0  0  0  0  0  0  0  0
    3.0195   -0.8893    0.1959 F   0  0  0  0  0  0  0  0  0  0  0  0
    3.0515    0.6523   -1.5367 F   0  0  0  0  0  0  0  0  0  0  0  0
    3.3805    1.3694    0.6368 F   0  0  0  0  0  0  0  0  0  0  0  0
    1.1751    0.2260    2.3646 F   0  0  0  0  0  0  0  0  0  0  0  0
  1  7  1  0  0  0  0
  2  8  1  6  0  0  0
  2  1  1  0  0  0  0
  2 20  1  0  0  0  0
  3 16  1  6  0  0  0
  3  2  1  0  0  0  0
  4  5  2  0  0  0  0
  4  3  1  0  0  0  0
  5  6  1  0  0  0  0
  6 11  1  0  0  0  0
  6  1  2  0  0  0  0
  9  4  1  0  0  0  0
 10  5  1  0  0  0  0
 11 12  2  0  0  0  0
 13 11  2  0  0  0  0
 15 14  3  0  0  0  0
 16 17  1  0  0  0  0
 16 19  1  0  0  0  0
 18 16  1  0  0  0  0
M  RAD  1   3   2
M  END
