Coordinates from ORCA-job p-NO2-Ph-N2-BF4-B3LYPG-6-31G_dp-scan-d09-49-n400
 OpenBabel08281821153D

 20 20  0  0  1  0  0  0  0  0999 V2000
   -0.9940    0.4274    1.4408 C   0  0  0  0  0  0  0  0  0  0  0  0
    0.4546    0.0816    1.2546 C   0  0  1  0  0  0  0  0  0  0  0  0
    1.1750    0.9401    0.2057 C   0  0  1  0  0  0  0  0  0  0  0  0
    0.2943    1.1838   -0.9957 C   0  0  0  0  0  0  0  0  0  0  0  0
   -1.0453    1.1481   -0.9052 C   0  0  0  0  0  0  0  0  0  0  0  0
   -1.6798    0.8756    0.3812 C   0  0  0  0  0  0  0  0  0  0  0  0
   -1.4715    0.2328    2.3940 H   0  0  0  0  0  0  0  0  0  0  0  0
    0.5252   -0.9595    0.9006 H   0  0  0  0  0  0  0  0  0  0  0  0
    0.7909    1.4263   -1.9281 H   0  0  0  0  0  0  0  0  0  0  0  0
   -1.6843    1.3421   -1.7576 H   0  0  0  0  0  0  0  0  0  0  0  0
   -3.1283    1.1240    0.5094 N   0  0  0  0  0  0  0  0  0  0  0  0
   -3.6538    0.9103    1.5979 O   0  0  0  0  0  0  0  0  0  0  0  0
   -3.7107    1.5303   -0.4949 O   0  0  0  0  0  0  0  0  0  0  0  0
    1.4291    2.2928    0.8819 N   0  0  0  0  0  0  0  0  0  0  0  0
    2.5185    2.6276    1.1503 N   0  0  0  0  0  0  0  0  0  0  0  0
    2.6852    0.4018   -0.1502 B   0  0  0  0  0  0  0  0  0  0  0  0
    3.0225   -0.7905    0.3880 F   0  0  0  0  0  0  0  0  0  0  0  0
    3.0805    0.6274   -1.4270 F   0  0  0  0  0  0  0  0  0  0  0  0
    3.5124    1.5296    0.7225 F   0  0  0  0  0  0  0  0  0  0  0  0
    1.1226    0.1672    2.4647 F   0  0  0  0  0  0  0  0  0  0  0  0
  1  7  1  0  0  0  0
  2  8  1  6  0  0  0
  2  1  1  0  0  0  0
  2 20  1  0  0  0  0
  3 16  1  6  0  0  0
  3 14  1  0  0  0  0
  3  2  1  0  0  0  0
  4  5  2  0  0  0  0
  4  3  1  0  0  0  0
  5  6  1  0  0  0  0
  6 11  1  0  0  0  0
  6  1  2  0  0  0  0
  9  4  1  0  0  0  0
 10  5  1  0  0  0  0
 11 12  2  0  0  0  0
 13 11  2  0  0  0  0
 14 15  1  0  0  0  0
 16 17  1  0  0  0  0
 18 16  1  0  0  0  0
 19 15  1  0  0  0  0
M  RAD  2  14   2  15   2
M  END
