Coordinates from ORCA-job p-NO2-Ph-N2-BF4-B3LYPG-6-31G_dp-scan-d09-49-n400
 OpenBabel08281821153D

 20 19  0  0  1  0  0  0  0  0999 V2000
   -0.9854    0.4782    1.4345 C   0  0  0  0  0  0  0  0  0  0  0  0
    0.4405    0.1552    1.2294 C   0  0  1  0  0  0  0  0  0  0  0  0
    1.1165    0.6050    0.0001 C   0  0  2  0  0  0  0  0  0  0  0  0
    0.2752    0.9308   -1.0815 C   0  0  0  0  0  0  0  0  0  0  0  0
   -1.0915    1.0657   -0.9208 C   0  0  0  0  0  0  0  0  0  0  0  0
   -1.7067    0.8447    0.3464 C   0  0  0  0  0  0  0  0  0  0  0  0
   -1.4409    0.3415    2.4091 H   0  0  0  0  0  0  0  0  0  0  0  0
    0.3874   -0.9253    0.8974 H   0  0  0  0  0  0  0  0  0  0  0  0
    0.7445    1.1516   -2.0341 H   0  0  0  0  0  0  0  0  0  0  0  0
   -1.7319    1.3680   -1.7431 H   0  0  0  0  0  0  0  0  0  0  0  0
   -3.1613    1.0892    0.4851 N   0  0  0  0  0  0  0  0  0  0  0  0
   -3.6597    0.8800    1.5842 O   0  0  0  0  0  0  0  0  0  0  0  0
   -3.7520    1.4812   -0.5160 O   0  0  0  0  0  0  0  0  0  0  0  0
    1.6432    2.9676    1.4833 N   0  0  0  0  0  0  0  0  0  0  0  0
    2.7527    2.8732    1.5040 N   0  0  0  0  0  0  0  0  0  0  0  0
    2.7723    0.4323   -0.1804 B   0  0  0  0  0  0  0  0  0  0  0  0
    3.0185   -0.8772    0.2167 F   0  0  0  0  0  0  0  0  0  0  0  0
    3.0586    0.6653   -1.5156 F   0  0  0  0  0  0  0  0  0  0  0  0
    3.3939    1.3798    0.6578 F   0  0  0  0  0  0  0  0  0  0  0  0
    1.1691    0.2121    2.3764 F   0  0  0  0  0  0  0  0  0  0  0  0
  1  7  1  0  0  0  0
  2  8  1  6  0  0  0
  2  1  1  0  0  0  0
  2 20  1  0  0  0  0
  3 16  1  6  0  0  0
  3  2  1  0  0  0  0
  4  5  2  0  0  0  0
  4  3  1  0  0  0  0
  5  6  1  0  0  0  0
  6 11  1  0  0  0  0
  6  1  2  0  0  0  0
  9  4  1  0  0  0  0
 10  5  1  0  0  0  0
 11 12  2  0  0  0  0
 13 11  2  0  0  0  0
 14 15  3  0  0  0  0
 16 17  1  0  0  0  0
 16 19  1  0  0  0  0
 18 16  1  0  0  0  0
M  RAD  1   3   2
M  END
