Coordinates from ORCA-job p-NO2-Ph-N2-BF4-B3LYPG-6-31G_dp-scan-d09-49-n400
 OpenBabel08281821153D

 20 20  0  0  1  0  0  0  0  0999 V2000
   -0.9990    0.4347    1.4457 C   0  0  0  0  0  0  0  0  0  0  0  0
    0.4536    0.1077    1.2670 C   0  0  1  0  0  0  0  0  0  0  0  0
    1.1697    0.9504    0.2092 C   0  0  1  0  0  0  0  0  0  0  0  0
    0.2961    1.1986   -0.9859 C   0  0  0  0  0  0  0  0  0  0  0  0
   -1.0452    1.1474   -0.9016 C   0  0  0  0  0  0  0  0  0  0  0  0
   -1.6846    0.8701    0.3798 C   0  0  0  0  0  0  0  0  0  0  0  0
   -1.4794    0.2368    2.3969 H   0  0  0  0  0  0  0  0  0  0  0  0
    0.5391   -0.9334    0.9136 H   0  0  0  0  0  0  0  0  0  0  0  0
    0.7961    1.4455   -1.9151 H   0  0  0  0  0  0  0  0  0  0  0  0
   -1.6815    1.3340   -1.7578 H   0  0  0  0  0  0  0  0  0  0  0  0
   -3.1375    1.1000    0.4976 N   0  0  0  0  0  0  0  0  0  0  0  0
   -3.6659    0.8846    1.5842 O   0  0  0  0  0  0  0  0  0  0  0  0
   -3.7186    1.4941   -0.5120 O   0  0  0  0  0  0  0  0  0  0  0  0
    1.4661    2.3154    0.9013 N   0  0  0  0  0  0  0  0  0  0  0  0
    2.5378    2.6427    1.1697 N   0  0  0  0  0  0  0  0  0  0  0  0
    2.7159    0.4286   -0.1358 B   0  0  0  0  0  0  0  0  0  0  0  0
    2.9666   -0.8177    0.3523 F   0  0  0  0  0  0  0  0  0  0  0  0
    3.0509    0.6343   -1.4434 F   0  0  0  0  0  0  0  0  0  0  0  0
    3.5460    1.4391    0.6895 F   0  0  0  0  0  0  0  0  0  0  0  0
    1.1168    0.2057    2.4776 F   0  0  0  0  0  0  0  0  0  0  0  0
  1  7  1  0  0  0  0
  2  8  1  6  0  0  0
  2  1  1  0  0  0  0
  2 20  1  0  0  0  0
  3 16  1  6  0  0  0
  3 14  1  0  0  0  0
  3  2  1  0  0  0  0
  4  5  2  0  0  0  0
  4  3  1  0  0  0  0
  5  6  1  0  0  0  0
  6 11  1  0  0  0  0
  6  1  2  0  0  0  0
  9  4  1  0  0  0  0
 10  5  1  0  0  0  0
 11 12  2  0  0  0  0
 13 11  2  0  0  0  0
 14 15  2  0  0  0  0
 16 17  1  0  0  0  0
 16 19  1  0  0  0  0
 18 16  1  0  0  0  0
M  RAD  1  15   2
M  END
