Coordinates from ORCA-job p-NO2-Ph-N2-BF4-B3LYPG-6-31G_dp-scan-d09-49-n400
 OpenBabel08281821153D

 20 20  0  0  1  0  0  0  0  0999 V2000
   -0.9946    0.4277    1.4412 C   0  0  0  0  0  0  0  0  0  0  0  0
    0.4544    0.0839    1.2559 C   0  0  1  0  0  0  0  0  0  0  0  0
    1.1743    0.9412    0.2063 C   0  0  1  0  0  0  0  0  0  0  0  0
    0.2945    1.1856   -0.9946 C   0  0  0  0  0  0  0  0  0  0  0  0
   -1.0452    1.1483   -0.9047 C   0  0  0  0  0  0  0  0  0  0  0  0
   -1.6803    0.8751    0.3811 C   0  0  0  0  0  0  0  0  0  0  0  0
   -1.4726    0.2324    2.3940 H   0  0  0  0  0  0  0  0  0  0  0  0
    0.5268   -0.9572    0.9018 H   0  0  0  0  0  0  0  0  0  0  0  0
    0.7916    1.4284   -1.9266 H   0  0  0  0  0  0  0  0  0  0  0  0
   -1.6839    1.3417   -1.7576 H   0  0  0  0  0  0  0  0  0  0  0  0
   -3.1293    1.1217    0.5082 N   0  0  0  0  0  0  0  0  0  0  0  0
   -3.6552    0.9075    1.5964 O   0  0  0  0  0  0  0  0  0  0  0  0
   -3.7114    1.5275   -0.4965 O   0  0  0  0  0  0  0  0  0  0  0  0
    1.4326    2.2947    0.8843 N   0  0  0  0  0  0  0  0  0  0  0  0
    2.5203    2.6286    1.1513 N   0  0  0  0  0  0  0  0  0  0  0  0
    2.6890    0.4057   -0.1477 B   0  0  0  0  0  0  0  0  0  0  0  0
    3.0179   -0.7923    0.3862 F   0  0  0  0  0  0  0  0  0  0  0  0
    3.0768    0.6269   -1.4289 F   0  0  0  0  0  0  0  0  0  0  0  0
    3.5155    1.5204    0.7166 F   0  0  0  0  0  0  0  0  0  0  0  0
    1.1217    0.1708    2.4661 F   0  0  0  0  0  0  0  0  0  0  0  0
  1  7  1  0  0  0  0
  2  8  1  6  0  0  0
  2  1  1  0  0  0  0
  2 20  1  0  0  0  0
  3 16  1  6  0  0  0
  3 14  1  0  0  0  0
  3  2  1  0  0  0  0
  4  5  2  0  0  0  0
  4  3  1  0  0  0  0
  5  6  1  0  0  0  0
  6 11  1  0  0  0  0
  6  1  2  0  0  0  0
  9  4  1  0  0  0  0
 10  5  1  0  0  0  0
 11 12  2  0  0  0  0
 13 11  2  0  0  0  0
 14 15  1  0  0  0  0
 16 17  1  0  0  0  0
 18 16  1  0  0  0  0
 19 15  1  0  0  0  0
M  RAD  2  14   2  15   2
M  END
