Coordinates from ORCA-job p-NO2-Ph-N2-BF4-B3LYPG-6-31G_dp-scan-d09-49-n400
 OpenBabel08281821153D

 20 19  0  0  1  0  0  0  0  0999 V2000
   -0.9217    0.4944    1.4223 C   0  0  0  0  0  0  0  0  0  0  0  0
    0.4894    0.1310    1.1887 C   0  0  1  0  0  0  0  0  0  0  0  0
    1.1468    0.5140   -0.0731 C   0  0  2  0  0  0  0  0  0  0  0  0
    0.2841    0.8562   -1.1350 C   0  0  0  0  0  0  0  0  0  0  0  0
   -1.0722    1.0367   -0.9422 C   0  0  0  0  0  0  0  0  0  0  0  0
   -1.6613    0.8549    0.3448 C   0  0  0  0  0  0  0  0  0  0  0  0
   -1.3549    0.3953    2.4115 H   0  0  0  0  0  0  0  0  0  0  0  0
    0.4023   -0.9556    0.8854 H   0  0  0  0  0  0  0  0  0  0  0  0
    0.7365    1.0431   -2.1031 H   0  0  0  0  0  0  0  0  0  0  0  0
   -1.7250    1.3428   -1.7532 H   0  0  0  0  0  0  0  0  0  0  0  0
   -3.1048    1.1402    0.5145 N   0  0  0  0  0  0  0  0  0  0  0  0
   -3.5812    0.9664    1.6297 O   0  0  0  0  0  0  0  0  0  0  0  0
   -3.7108    1.5292   -0.4789 O   0  0  0  0  0  0  0  0  0  0  0  0
    1.5631    3.1029    1.7562 N   0  0  0  0  0  0  0  0  0  0  0  0
    2.3092    3.8532    2.0736 N   0  0  0  0  0  0  0  0  0  0  0  0
    2.7799    0.2272   -0.3101 B   0  0  0  0  0  0  0  0  0  0  0  0
    2.8591   -1.1503   -0.0705 F   0  0  0  0  0  0  0  0  0  0  0  0
    3.0508    0.5531   -1.6333 F   0  0  0  0  0  0  0  0  0  0  0  0
    3.5055    0.9817    0.5900 F   0  0  0  0  0  0  0  0  0  0  0  0
    1.2486    0.2023    2.3156 F   0  0  0  0  0  0  0  0  0  0  0  0
  1  7  1  0  0  0  0
  2  8  1  6  0  0  0
  2  1  1  0  0  0  0
  2 20  1  0  0  0  0
  3 16  1  6  0  0  0
  3  2  1  0  0  0  0
  4  5  2  0  0  0  0
  4  3  1  0  0  0  0
  5  6  1  0  0  0  0
  6 11  1  0  0  0  0
  6  1  2  0  0  0  0
  9  4  1  0  0  0  0
 10  5  1  0  0  0  0
 11 12  2  0  0  0  0
 13 11  2  0  0  0  0
 14 15  3  0  0  0  0
 16 17  1  0  0  0  0
 16 19  1  0  0  0  0
 18 16  1  0  0  0  0
M  RAD  1   3   2
M  END
