Coordinates from ORCA-job p-NO2-Ph-N2-BF4-B3LYPG-6-31G_dp-scan-d09-49-n400
 OpenBabel08281821153D

 20 19  0  0  1  0  0  0  0  0999 V2000
   -0.9374    0.5011    1.4198 C   0  0  0  0  0  0  0  0  0  0  0  0
    0.4765    0.1448    1.1913 C   0  0  1  0  0  0  0  0  0  0  0  0
    1.1350    0.5279   -0.0699 C   0  0  2  0  0  0  0  0  0  0  0  0
    0.2731    0.8558   -1.1363 C   0  0  0  0  0  0  0  0  0  0  0  0
   -1.0853    1.0287   -0.9480 C   0  0  0  0  0  0  0  0  0  0  0  0
   -1.6764    0.8512    0.3383 C   0  0  0  0  0  0  0  0  0  0  0  0
   -1.3724    0.4045    2.4085 H   0  0  0  0  0  0  0  0  0  0  0  0
    0.3938   -0.9431    0.8906 H   0  0  0  0  0  0  0  0  0  0  0  0
    0.7269    1.0399   -2.1042 H   0  0  0  0  0  0  0  0  0  0  0  0
   -1.7378    1.3261   -1.7625 H   0  0  0  0  0  0  0  0  0  0  0  0
   -3.1220    1.1290    0.5029 N   0  0  0  0  0  0  0  0  0  0  0  0
   -3.6004    0.9567    1.6174 O   0  0  0  0  0  0  0  0  0  0  0  0
   -3.7274    1.5100   -0.4939 O   0  0  0  0  0  0  0  0  0  0  0  0
    1.5357    3.0910    1.8222 N   0  0  0  0  0  0  0  0  0  0  0  0
    2.5213    3.5688    1.9649 N   0  0  0  0  0  0  0  0  0  0  0  0
    2.7787    0.2871   -0.2905 B   0  0  0  0  0  0  0  0  0  0  0  0
    2.9275   -1.0670    0.0221 F   0  0  0  0  0  0  0  0  0  0  0  0
    3.0388    0.5574   -1.6286 F   0  0  0  0  0  0  0  0  0  0  0  0
    3.4622    1.1278    0.5690 F   0  0  0  0  0  0  0  0  0  0  0  0
    1.2327    0.2211    2.3197 F   0  0  0  0  0  0  0  0  0  0  0  0
  1  7  1  0  0  0  0
  2  8  1  6  0  0  0
  2  1  1  0  0  0  0
  2 20  1  0  0  0  0
  3 16  1  6  0  0  0
  3  2  1  0  0  0  0
  4  5  2  0  0  0  0
  4  3  1  0  0  0  0
  5  6  1  0  0  0  0
  6 11  1  0  0  0  0
  6  1  2  0  0  0  0
  9  4  1  0  0  0  0
 10  5  1  0  0  0  0
 11 12  2  0  0  0  0
 13 11  2  0  0  0  0
 14 15  3  0  0  0  0
 16 17  1  0  0  0  0
 16 19  1  0  0  0  0
 18 16  1  0  0  0  0
M  RAD  1   3   2
M  END
