Coordinates from ORCA-job p-NO2-Ph-N2-BF4-B3LYPG-6-31G_dp-scan-d09-49-n400
 OpenBabel08281821153D

 20 19  0  0  1  0  0  0  0  0999 V2000
   -0.9637    0.5172    1.4130 C   0  0  0  0  0  0  0  0  0  0  0  0
    0.4572    0.1831    1.1952 C   0  0  1  0  0  0  0  0  0  0  0  0
    1.1142    0.5544   -0.0703 C   0  0  2  0  0  0  0  0  0  0  0  0
    0.2511    0.8494   -1.1446 C   0  0  0  0  0  0  0  0  0  0  0  0
   -1.1110    1.0036   -0.9635 C   0  0  0  0  0  0  0  0  0  0  0  0
   -1.7042    0.8369    0.3228 C   0  0  0  0  0  0  0  0  0  0  0  0
   -1.4006    0.4290    2.4017 H   0  0  0  0  0  0  0  0  0  0  0  0
    0.3921   -0.9101    0.9070 H   0  0  0  0  0  0  0  0  0  0  0  0
    0.7048    1.0242   -2.1143 H   0  0  0  0  0  0  0  0  0  0  0  0
   -1.7652    1.2769   -1.7852 H   0  0  0  0  0  0  0  0  0  0  0  0
   -3.1555    1.0913    0.4773 N   0  0  0  0  0  0  0  0  0  0  0  0
   -3.6356    0.9252    1.5919 O   0  0  0  0  0  0  0  0  0  0  0  0
   -3.7625    1.4479   -0.5274 O   0  0  0  0  0  0  0  0  0  0  0  0
    1.6720    3.1647    1.9619 N   0  0  0  0  0  0  0  0  0  0  0  0
    2.7736    3.2188    1.8900 N   0  0  0  0  0  0  0  0  0  0  0  0
    2.7660    0.3541   -0.2756 B   0  0  0  0  0  0  0  0  0  0  0  0
    2.9694   -0.9750    0.0976 F   0  0  0  0  0  0  0  0  0  0  0  0
    3.0246    0.5797   -1.6213 F   0  0  0  0  0  0  0  0  0  0  0  0
    3.4090    1.2625    0.5519 F   0  0  0  0  0  0  0  0  0  0  0  0
    1.2073    0.2849    2.3250 F   0  0  0  0  0  0  0  0  0  0  0  0
  1  7  1  0  0  0  0
  2  8  1  6  0  0  0
  2  1  1  0  0  0  0
  2 20  1  0  0  0  0
  3 16  1  6  0  0  0
  3  2  1  0  0  0  0
  4  5  2  0  0  0  0
  4  3  1  0  0  0  0
  5  6  1  0  0  0  0
  6 11  1  0  0  0  0
  6  1  2  0  0  0  0
  9  4  1  0  0  0  0
 10  5  1  0  0  0  0
 11 12  2  0  0  0  0
 13 11  2  0  0  0  0
 15 14  3  0  0  0  0
 16 17  1  0  0  0  0
 16 19  1  0  0  0  0
 18 16  1  0  0  0  0
M  RAD  1   3   2
M  END
