Coordinates from ORCA-job p-NO2-Ph-N2-BF4-B3LYPG-6-31G_dp-scan-d09-49-n400
 OpenBabel08281821153D

 20 19  0  0  1  0  0  0  0  0999 V2000
   -0.9842    0.4829    1.4320 C   0  0  0  0  0  0  0  0  0  0  0  0
    0.4411    0.1596    1.2257 C   0  0  1  0  0  0  0  0  0  0  0  0
    1.1149    0.5959   -0.0094 C   0  0  2  0  0  0  0  0  0  0  0  0
    0.2712    0.9181   -1.0899 C   0  0  0  0  0  0  0  0  0  0  0  0
   -1.0951    1.0570   -0.9264 C   0  0  0  0  0  0  0  0  0  0  0  0
   -1.7079    0.8428    0.3430 C   0  0  0  0  0  0  0  0  0  0  0  0
   -1.4376    0.3528    2.4085 H   0  0  0  0  0  0  0  0  0  0  0  0
    0.3856   -0.9225    0.8980 H   0  0  0  0  0  0  0  0  0  0  0  0
    0.7387    1.1325   -2.0448 H   0  0  0  0  0  0  0  0  0  0  0  0
   -1.7369    1.3565   -1.7487 H   0  0  0  0  0  0  0  0  0  0  0  0
   -3.1622    1.0885    0.4833 N   0  0  0  0  0  0  0  0  0  0  0  0
   -3.6586    0.8835    1.5841 O   0  0  0  0  0  0  0  0  0  0  0  0
   -3.7546    1.4766   -0.5182 O   0  0  0  0  0  0  0  0  0  0  0  0
    1.6587    3.0014    1.5457 N   0  0  0  0  0  0  0  0  0  0  0  0
    2.7657    2.8951    1.5445 N   0  0  0  0  0  0  0  0  0  0  0  0
    2.7716    0.4271   -0.1901 B   0  0  0  0  0  0  0  0  0  0  0  0
    3.0185   -0.8838    0.2039 F   0  0  0  0  0  0  0  0  0  0  0  0
    3.0547    0.6605   -1.5266 F   0  0  0  0  0  0  0  0  0  0  0  0
    3.3871    1.3734    0.6478 F   0  0  0  0  0  0  0  0  0  0  0  0
    1.1723    0.2209    2.3705 F   0  0  0  0  0  0  0  0  0  0  0  0
  1  7  1  0  0  0  0
  2  8  1  6  0  0  0
  2  1  1  0  0  0  0
  2 20  1  0  0  0  0
  3 16  1  6  0  0  0
  3  2  1  0  0  0  0
  4  5  2  0  0  0  0
  4  3  1  0  0  0  0
  5  6  1  0  0  0  0
  6 11  1  0  0  0  0
  6  1  2  0  0  0  0
  9  4  1  0  0  0  0
 10  5  1  0  0  0  0
 11 12  2  0  0  0  0
 13 11  2  0  0  0  0
 15 14  3  0  0  0  0
 16 17  1  0  0  0  0
 16 19  1  0  0  0  0
 18 16  1  0  0  0  0
M  RAD  1   3   2
M  END
