Coordinates from ORCA-job p-NO2-Ph-N2-BF4-B3LYPG-6-31G_dp-scan-d09-49-n400
 OpenBabel08281821153D

 20 19  0  0  1  0  0  0  0  0999 V2000
   -0.9218    0.4837    1.4181 C   0  0  0  0  0  0  0  0  0  0  0  0
    0.4840    0.1040    1.1785 C   0  0  1  0  0  0  0  0  0  0  0  0
    1.1428    0.4914   -0.0811 C   0  0  2  0  0  0  0  0  0  0  0  0
    0.2823    0.8484   -1.1392 C   0  0  0  0  0  0  0  0  0  0  0  0
   -1.0717    1.0437   -0.9424 C   0  0  0  0  0  0  0  0  0  0  0  0
   -1.6594    0.8616    0.3448 C   0  0  0  0  0  0  0  0  0  0  0  0
   -1.3544    0.3826    2.4074 H   0  0  0  0  0  0  0  0  0  0  0  0
    0.3786   -0.9780    0.8623 H   0  0  0  0  0  0  0  0  0  0  0  0
    0.7351    1.0358   -2.1070 H   0  0  0  0  0  0  0  0  0  0  0  0
   -1.7228    1.3622   -1.7500 H   0  0  0  0  0  0  0  0  0  0  0  0
   -3.0986    1.1647    0.5206 N   0  0  0  0  0  0  0  0  0  0  0  0
   -3.5738    0.9909    1.6362 O   0  0  0  0  0  0  0  0  0  0  0  0
   -3.7023    1.5670   -0.4688 O   0  0  0  0  0  0  0  0  0  0  0  0
    1.5145    3.0624    1.8341 N   0  0  0  0  0  0  0  0  0  0  0  0
    2.3300    3.7909    1.9908 N   0  0  0  0  0  0  0  0  0  0  0  0
    2.7851    0.2462   -0.3027 B   0  0  0  0  0  0  0  0  0  0  0  0
    2.9524   -1.0977    0.0355 F   0  0  0  0  0  0  0  0  0  0  0  0
    3.0404    0.4935   -1.6467 F   0  0  0  0  0  0  0  0  0  0  0  0
    3.4565    1.1155    0.5386 F   0  0  0  0  0  0  0  0  0  0  0  0
    1.2461    0.1500    2.3038 F   0  0  0  0  0  0  0  0  0  0  0  0
  1  7  1  0  0  0  0
  2  8  1  6  0  0  0
  2  1  1  0  0  0  0
  2 20  1  0  0  0  0
  3 16  1  6  0  0  0
  3  2  1  0  0  0  0
  4  5  2  0  0  0  0
  4  3  1  0  0  0  0
  5  6  1  0  0  0  0
  6 11  1  0  0  0  0
  6  1  2  0  0  0  0
  9  4  1  0  0  0  0
 10  5  1  0  0  0  0
 11 12  2  0  0  0  0
 13 11  2  0  0  0  0
 14 15  3  0  0  0  0
 16 17  1  0  0  0  0
 16 19  1  0  0  0  0
 18 16  1  0  0  0  0
M  RAD  1   3   2
M  END
