Coordinates from ORCA-job p-NO2-Ph-N2-BF4-B3LYPG-6-31G_dp-scan-d09-49-n400
 OpenBabel08281821153D

 20 19  0  0  1  0  0  0  0  0999 V2000
   -0.8436    0.5475    1.4222 C   0  0  0  0  0  0  0  0  0  0  0  0
    0.5519    0.1420    1.1657 C   0  0  1  0  0  0  0  0  0  0  0  0
    1.1873    0.4710   -0.1229 C   0  0  2  0  0  0  0  0  0  0  0  0
    0.3069    0.8076   -1.1720 C   0  0  0  0  0  0  0  0  0  0  0  0
   -1.0393    1.0285   -0.9518 C   0  0  0  0  0  0  0  0  0  0  0  0
   -1.6009    0.8964    0.3531 C   0  0  0  0  0  0  0  0  0  0  0  0
   -1.2544    0.4876    2.4241 H   0  0  0  0  0  0  0  0  0  0  0  0
    0.4332   -0.9510    0.9000 H   0  0  0  0  0  0  0  0  0  0  0  0
    0.7398    0.9548   -2.1558 H   0  0  0  0  0  0  0  0  0  0  0  0
   -1.7038    1.3296   -1.7551 H   0  0  0  0  0  0  0  0  0  0  0  0
   -3.0316    1.2244    0.5499 N   0  0  0  0  0  0  0  0  0  0  0  0
   -3.4845    1.0935    1.6807 O   0  0  0  0  0  0  0  0  0  0  0  0
   -3.6519    1.6028   -0.4388 O   0  0  0  0  0  0  0  0  0  0  0  0
    1.2707    3.1494    1.8581 N   0  0  0  0  0  0  0  0  0  0  0  0
    1.7586    3.9691    2.4153 N   0  0  0  0  0  0  0  0  0  0  0  0
    2.8022    0.1208   -0.3999 B   0  0  0  0  0  0  0  0  0  0  0  0
    2.8356   -1.2520   -0.1191 F   0  0  0  0  0  0  0  0  0  0  0  0
    3.0396    0.3928   -1.7418 F   0  0  0  0  0  0  0  0  0  0  0  0
    3.5865    0.8725    0.4496 F   0  0  0  0  0  0  0  0  0  0  0  0
    1.3407    0.2315    2.2713 F   0  0  0  0  0  0  0  0  0  0  0  0
  1  7  1  0  0  0  0
  2  8  1  6  0  0  0
  2  1  1  0  0  0  0
  2 20  1  0  0  0  0
  3 16  1  6  0  0  0
  3  2  1  0  0  0  0
  4  5  2  0  0  0  0
  4  3  1  0  0  0  0
  5  6  1  0  0  0  0
  6 11  1  0  0  0  0
  6  1  2  0  0  0  0
  9  4  1  0  0  0  0
 10  5  1  0  0  0  0
 11 12  2  0  0  0  0
 13 11  2  0  0  0  0
 14 15  3  0  0  0  0
 16 17  1  0  0  0  0
 16 19  1  0  0  0  0
 18 16  1  0  0  0  0
M  RAD  1   3   2
M  END
