Coordinates from ORCA-job p-NO2-Ph-N2-BF4-B3LYPG-6-31G_dp-scan-d09-49-n400
 OpenBabel08281821153D

 20 19  0  0  1  0  0  0  0  0999 V2000
   -0.8186    0.5639    1.4216 C   0  0  0  0  0  0  0  0  0  0  0  0
    0.5727    0.1481    1.1592 C   0  0  1  0  0  0  0  0  0  0  0  0
    1.2010    0.4596   -0.1374 C   0  0  2  0  0  0  0  0  0  0  0  0
    0.3154    0.7943   -1.1824 C   0  0  0  0  0  0  0  0  0  0  0  0
   -1.0278    1.0266   -0.9546 C   0  0  0  0  0  0  0  0  0  0  0  0
   -1.5814    0.9082    0.3548 C   0  0  0  0  0  0  0  0  0  0  0  0
   -1.2229    0.5152    2.4267 H   0  0  0  0  0  0  0  0  0  0  0  0
    0.4455   -0.9467    0.9053 H   0  0  0  0  0  0  0  0  0  0  0  0
    0.7421    0.9293   -2.1706 H   0  0  0  0  0  0  0  0  0  0  0  0
   -1.6957    1.3259   -1.7558 H   0  0  0  0  0  0  0  0  0  0  0  0
   -3.0085    1.2471    0.5588 N   0  0  0  0  0  0  0  0  0  0  0  0
   -3.4543    1.1281    1.6938 O   0  0  0  0  0  0  0  0  0  0  0  0
   -3.6333    1.6215   -0.4285 O   0  0  0  0  0  0  0  0  0  0  0  0
    1.1630    3.1789    1.9227 N   0  0  0  0  0  0  0  0  0  0  0  0
    1.5982    4.0143    2.5002 N   0  0  0  0  0  0  0  0  0  0  0  0
    2.8084    0.0833   -0.4290 B   0  0  0  0  0  0  0  0  0  0  0  0
    2.8175   -1.2896   -0.1435 F   0  0  0  0  0  0  0  0  0  0  0  0
    3.0348    0.3453   -1.7748 F   0  0  0  0  0  0  0  0  0  0  0  0
    3.6172    0.8211    0.4080 F   0  0  0  0  0  0  0  0  0  0  0  0
    1.3696    0.2443    2.2586 F   0  0  0  0  0  0  0  0  0  0  0  0
  1  7  1  0  0  0  0
  2  8  1  6  0  0  0
  2  1  1  0  0  0  0
  2 20  1  0  0  0  0
  3 16  1  6  0  0  0
  3  2  1  0  0  0  0
  4  5  2  0  0  0  0
  4  3  1  0  0  0  0
  5  6  1  0  0  0  0
  6 11  1  0  0  0  0
  6  1  2  0  0  0  0
  9  4  1  0  0  0  0
 10  5  1  0  0  0  0
 11 12  2  0  0  0  0
 13 11  2  0  0  0  0
 14 15  3  0  0  0  0
 16 17  1  0  0  0  0
 16 19  1  0  0  0  0
 18 16  1  0  0  0  0
M  RAD  1   3   2
M  END
