Coordinates from ORCA-job p-NO2-Ph-N2-BF4-B3LYPG-6-31G_dp-scan-d09-49-n400
 OpenBabel08281821153D

 20 20  0  0  1  0  0  0  0  0999 V2000
   -0.9462    0.4747    1.4421 C   0  0  0  0  0  0  0  0  0  0  0  0
    0.4883    0.0896    1.2277 C   0  0  1  0  0  0  0  0  0  0  0  0
    1.1976    0.9269    0.1401 C   0  0  1  0  0  0  0  0  0  0  0  0
    0.2767    1.1157   -1.0568 C   0  0  0  0  0  0  0  0  0  0  0  0
   -1.0587    1.0964   -0.9302 C   0  0  0  0  0  0  0  0  0  0  0  0
   -1.6581    0.8807    0.3835 C   0  0  0  0  0  0  0  0  0  0  0  0
   -1.3961    0.3338    2.4179 H   0  0  0  0  0  0  0  0  0  0  0  0
    0.5166   -0.9643    0.9086 H   0  0  0  0  0  0  0  0  0  0  0  0
    0.7398    1.3475   -2.0102 H   0  0  0  0  0  0  0  0  0  0  0  0
   -1.7187    1.2804   -1.7684 H   0  0  0  0  0  0  0  0  0  0  0  0
   -3.0991    1.1496    0.5432 N   0  0  0  0  0  0  0  0  0  0  0  0
   -3.5938    0.9951    1.6562 O   0  0  0  0  0  0  0  0  0  0  0  0
   -3.7103    1.5086   -0.4624 O   0  0  0  0  0  0  0  0  0  0  0  0
    1.3994    2.3088    0.7295 N   0  0  0  0  0  0  0  0  0  0  0  0
    2.4628    2.6016    1.2495 N   0  0  0  0  0  0  0  0  0  0  0  0
    2.5737    0.2614   -0.3101 B   0  0  0  0  0  0  0  0  0  0  0  0
    2.9596   -0.9141    0.1635 F   0  0  0  0  0  0  0  0  0  0  0  0
    3.2450    0.7841   -1.3280 F   0  0  0  0  0  0  0  0  0  0  0  0
    3.3716    1.6571    1.2196 F   0  0  0  0  0  0  0  0  0  0  0  0
    1.1929    0.1850    2.4176 F   0  0  0  0  0  0  0  0  0  0  0  0
  1  7  1  0  0  0  0
  2  8  1  6  0  0  0
  2  1  1  0  0  0  0
  2 20  1  0  0  0  0
  3 16  1  6  0  0  0
  3 14  1  0  0  0  0
  3  2  1  0  0  0  0
  4  5  2  0  0  0  0
  4  3  1  0  0  0  0
  5  6  1  0  0  0  0
  6 11  1  0  0  0  0
  6  1  2  0  0  0  0
  9  4  1  0  0  0  0
 10  5  1  0  0  0  0
 11 12  2  0  0  0  0
 13 11  2  0  0  0  0
 14 15  1  0  0  0  0
 16 17  1  0  0  0  0
 18 16  1  0  0  0  0
 19 15  1  0  0  0  0
M  RAD  2  14   2  15   2
M  END
