Coordinates from ORCA-job p-NO2-Ph-N2-BF4-B3LYPG-6-31G_dp-scan-d09-49-n400
 OpenBabel08281821153D

 20 19  0  0  1  0  0  0  0  0999 V2000
   -0.9608    0.5177    1.4131 C   0  0  0  0  0  0  0  0  0  0  0  0
    0.4595    0.1818    1.1942 C   0  0  1  0  0  0  0  0  0  0  0  0
    1.1160    0.5523   -0.0719 C   0  0  2  0  0  0  0  0  0  0  0  0
    0.2523    0.8484   -1.1455 C   0  0  0  0  0  0  0  0  0  0  0  0
   -1.1094    1.0042   -0.9633 C   0  0  0  0  0  0  0  0  0  0  0  0
   -1.7018    0.8382    0.3235 C   0  0  0  0  0  0  0  0  0  0  0  0
   -1.3970    0.4301    2.4021 H   0  0  0  0  0  0  0  0  0  0  0  0
    0.3931   -0.9115    0.9066 H   0  0  0  0  0  0  0  0  0  0  0  0
    0.7055    1.0227   -2.1156 H   0  0  0  0  0  0  0  0  0  0  0  0
   -1.7639    1.2783   -1.7845 H   0  0  0  0  0  0  0  0  0  0  0  0
   -3.1526    1.0945    0.4791 N   0  0  0  0  0  0  0  0  0  0  0  0
   -3.6320    0.9291    1.5941 O   0  0  0  0  0  0  0  0  0  0  0  0
   -3.7600    1.4518   -0.5250 O   0  0  0  0  0  0  0  0  0  0  0  0
    1.6551    3.1630    1.9618 N   0  0  0  0  0  0  0  0  0  0  0  0
    2.7561    3.2413    1.9032 N   0  0  0  0  0  0  0  0  0  0  0  0
    2.7671    0.3483   -0.2788 B   0  0  0  0  0  0  0  0  0  0  0  0
    2.9663   -0.9823    0.0919 F   0  0  0  0  0  0  0  0  0  0  0  0
    3.0250    0.5748   -1.6247 F   0  0  0  0  0  0  0  0  0  0  0  0
    3.4139    1.2529    0.5491 F   0  0  0  0  0  0  0  0  0  0  0  0
    1.2107    0.2833    2.3233 F   0  0  0  0  0  0  0  0  0  0  0  0
  1  7  1  0  0  0  0
  2  8  1  6  0  0  0
  2  1  1  0  0  0  0
  2 20  1  0  0  0  0
  3 16  1  6  0  0  0
  3  2  1  0  0  0  0
  4  5  2  0  0  0  0
  4  3  1  0  0  0  0
  5  6  1  0  0  0  0
  6 11  1  0  0  0  0
  6  1  2  0  0  0  0
  9  4  1  0  0  0  0
 10  5  1  0  0  0  0
 11 12  2  0  0  0  0
 13 11  2  0  0  0  0
 15 14  3  0  0  0  0
 16 17  1  0  0  0  0
 16 19  1  0  0  0  0
 18 16  1  0  0  0  0
M  RAD  1   3   2
M  END
