Coordinates from ORCA-job p-NO2-Ph-N2-BF4-B3LYPG-6-31G_dp-scan-d09-49-n400
 OpenBabel08281821153D

 20 19  0  0  1  0  0  0  0  0999 V2000
   -0.9600    0.5177    1.4132 C   0  0  0  0  0  0  0  0  0  0  0  0
    0.4601    0.1812    1.1940 C   0  0  1  0  0  0  0  0  0  0  0  0
    1.1165    0.5517   -0.0722 C   0  0  2  0  0  0  0  0  0  0  0  0
    0.2528    0.8482   -1.1456 C   0  0  0  0  0  0  0  0  0  0  0  0
   -1.1089    1.0045   -0.9631 C   0  0  0  0  0  0  0  0  0  0  0  0
   -1.7011    0.8385    0.3238 C   0  0  0  0  0  0  0  0  0  0  0  0
   -1.3961    0.4302    2.4023 H   0  0  0  0  0  0  0  0  0  0  0  0
    0.3934   -0.9120    0.9064 H   0  0  0  0  0  0  0  0  0  0  0  0
    0.7058    1.0225   -2.1157 H   0  0  0  0  0  0  0  0  0  0  0  0
   -1.7634    1.2789   -1.7841 H   0  0  0  0  0  0  0  0  0  0  0  0
   -3.1518    1.0954    0.4797 N   0  0  0  0  0  0  0  0  0  0  0  0
   -3.6310    0.9302    1.5948 O   0  0  0  0  0  0  0  0  0  0  0  0
   -3.7592    1.4532   -0.5242 O   0  0  0  0  0  0  0  0  0  0  0  0
    1.6500    3.1621    1.9606 N   0  0  0  0  0  0  0  0  0  0  0  0
    2.7506    3.2470    1.9058 N   0  0  0  0  0  0  0  0  0  0  0  0
    2.7675    0.3469   -0.2795 B   0  0  0  0  0  0  0  0  0  0  0  0
    2.9655   -0.9842    0.0905 F   0  0  0  0  0  0  0  0  0  0  0  0
    3.0252    0.5736   -1.6253 F   0  0  0  0  0  0  0  0  0  0  0  0
    3.4153    1.2504    0.5486 F   0  0  0  0  0  0  0  0  0  0  0  0
    1.2117    0.2825    2.3229 F   0  0  0  0  0  0  0  0  0  0  0  0
  1  7  1  0  0  0  0
  2  8  1  6  0  0  0
  2  1  1  0  0  0  0
  2 20  1  0  0  0  0
  3 16  1  6  0  0  0
  3  2  1  0  0  0  0
  4  5  2  0  0  0  0
  4  3  1  0  0  0  0
  5  6  1  0  0  0  0
  6 11  1  0  0  0  0
  6  1  2  0  0  0  0
  9  4  1  0  0  0  0
 10  5  1  0  0  0  0
 11 12  2  0  0  0  0
 13 11  2  0  0  0  0
 15 14  3  0  0  0  0
 16 17  1  0  0  0  0
 16 19  1  0  0  0  0
 18 16  1  0  0  0  0
M  RAD  1   3   2
M  END
