Coordinates from ORCA-job p-NO2-Ph-N2-BF4-B3LYPG-6-31G_dp-scan-d09-49-n400
 OpenBabel08281821153D

 20 19  0  0  1  0  0  0  0  0999 V2000
   -0.9248    0.4912    1.4224 C   0  0  0  0  0  0  0  0  0  0  0  0
    0.4867    0.1290    1.1895 C   0  0  1  0  0  0  0  0  0  0  0  0
    1.1452    0.5150   -0.0707 C   0  0  2  0  0  0  0  0  0  0  0  0
    0.2835    0.8590   -1.1329 C   0  0  0  0  0  0  0  0  0  0  0  0
   -1.0731    1.0385   -0.9411 C   0  0  0  0  0  0  0  0  0  0  0  0
   -1.6634    0.8538    0.3448 C   0  0  0  0  0  0  0  0  0  0  0  0
   -1.3591    0.3897    2.4109 H   0  0  0  0  0  0  0  0  0  0  0  0
    0.3999   -0.9570    0.8837 H   0  0  0  0  0  0  0  0  0  0  0  0
    0.7370    1.0481   -2.1000 H   0  0  0  0  0  0  0  0  0  0  0  0
   -1.7252    1.3461   -1.7522 H   0  0  0  0  0  0  0  0  0  0  0  0
   -3.1072    1.1380    0.5137 N   0  0  0  0  0  0  0  0  0  0  0  0
   -3.5846    0.9619    1.6281 O   0  0  0  0  0  0  0  0  0  0  0  0
   -3.7124    1.5285   -0.4795 O   0  0  0  0  0  0  0  0  0  0  0  0
    1.5751    3.0971    1.7467 N   0  0  0  0  0  0  0  0  0  0  0  0
    2.3260    3.8457    2.0565 N   0  0  0  0  0  0  0  0  0  0  0  0
    2.7794    0.2323   -0.3054 B   0  0  0  0  0  0  0  0  0  0  0  0
    2.8640   -1.1444   -0.0634 F   0  0  0  0  0  0  0  0  0  0  0  0
    3.0499    0.5571   -1.6292 F   0  0  0  0  0  0  0  0  0  0  0  0
    3.5013    0.9909    0.5936 F   0  0  0  0  0  0  0  0  0  0  0  0
    1.2447    0.1981    2.3174 F   0  0  0  0  0  0  0  0  0  0  0  0
  1  7  1  0  0  0  0
  2  8  1  6  0  0  0
  2  1  1  0  0  0  0
  2 20  1  0  0  0  0
  3 16  1  6  0  0  0
  3  2  1  0  0  0  0
  4  5  2  0  0  0  0
  4  3  1  0  0  0  0
  5  6  1  0  0  0  0
  6 11  1  0  0  0  0
  6  1  2  0  0  0  0
  9  4  1  0  0  0  0
 10  5  1  0  0  0  0
 11 12  2  0  0  0  0
 13 11  2  0  0  0  0
 14 15  3  0  0  0  0
 16 17  1  0  0  0  0
 16 19  1  0  0  0  0
 18 16  1  0  0  0  0
M  RAD  1   3   2
M  END
