Coordinates from ORCA-job p-NO2-Ph-N2-BF4-B3LYPG-6-31G_dp-scan-d09-49-n400
 OpenBabel08281821153D

 20 20  0  0  1  0  0  0  0  0999 V2000
   -0.9753    0.4415    1.4397 C   0  0  0  0  0  0  0  0  0  0  0  0
    0.4647    0.0680    1.2376 C   0  0  1  0  0  0  0  0  0  0  0  0
    1.1850    0.9266    0.1796 C   0  0  1  0  0  0  0  0  0  0  0  0
    0.2865    1.1464   -1.0239 C   0  0  0  0  0  0  0  0  0  0  0  0
   -1.0510    1.1268   -0.9164 C   0  0  0  0  0  0  0  0  0  0  0  0
   -1.6704    0.8807    0.3831 C   0  0  0  0  0  0  0  0  0  0  0  0
   -1.4407    0.2702    2.4033 H   0  0  0  0  0  0  0  0  0  0  0  0
    0.5071   -0.9768    0.8906 H   0  0  0  0  0  0  0  0  0  0  0  0
    0.7688    1.3815   -1.9662 H   0  0  0  0  0  0  0  0  0  0  0  0
   -1.6987    1.3206   -1.7620 H   0  0  0  0  0  0  0  0  0  0  0  0
   -3.1133    1.1488    0.5281 N   0  0  0  0  0  0  0  0  0  0  0  0
   -3.6256    0.9614    1.6278 O   0  0  0  0  0  0  0  0  0  0  0  0
   -3.7065    1.5421   -0.4753 O   0  0  0  0  0  0  0  0  0  0  0  0
    1.3918    2.2846    0.8213 N   0  0  0  0  0  0  0  0  0  0  0  0
    2.4805    2.6257    1.1835 N   0  0  0  0  0  0  0  0  0  0  0  0
    2.6248    0.3251   -0.2183 B   0  0  0  0  0  0  0  0  0  0  0  0
    3.0345   -0.8195    0.3272 F   0  0  0  0  0  0  0  0  0  0  0  0
    3.1556    0.6924   -1.3883 F   0  0  0  0  0  0  0  0  0  0  0  0
    3.4750    1.6298    0.9228 F   0  0  0  0  0  0  0  0  0  0  0  0
    1.1502    0.1427    2.4387 F   0  0  0  0  0  0  0  0  0  0  0  0
  1  7  1  0  0  0  0
  2  8  1  6  0  0  0
  2  1  1  0  0  0  0
  2 20  1  0  0  0  0
  3 16  1  6  0  0  0
  3 14  1  0  0  0  0
  3  2  1  0  0  0  0
  4  5  2  0  0  0  0
  4  3  1  0  0  0  0
  5  6  1  0  0  0  0
  6 11  1  0  0  0  0
  6  1  2  0  0  0  0
  9  4  1  0  0  0  0
 10  5  1  0  0  0  0
 11 12  2  0  0  0  0
 13 11  2  0  0  0  0
 14 15  1  0  0  0  0
 16 17  1  0  0  0  0
 18 16  1  0  0  0  0
 19 15  1  0  0  0  0
M  RAD  2  14   2  15   2
M  END
