Coordinates from ORCA-job p-NO2-Ph-N2-BF4-B3LYPG-6-31G_dp-scan-d09-49-n400
 OpenBabel08281821153D

 20 19  0  0  1  0  0  0  0  0999 V2000
   -0.7810    0.5950    1.4168 C   0  0  0  0  0  0  0  0  0  0  0  0
    0.6052    0.1680    1.1470 C   0  0  1  0  0  0  0  0  0  0  0  0
    1.2201    0.4453   -0.1642 C   0  0  2  0  0  0  0  0  0  0  0  0
    0.3243    0.7686   -1.2039 C   0  0  0  0  0  0  0  0  0  0  0  0
   -1.0148    1.0142   -0.9648 C   0  0  0  0  0  0  0  0  0  0  0  0
   -1.5545    0.9221    0.3522 C   0  0  0  0  0  0  0  0  0  0  0  0
   -1.1736    0.5685    2.4272 H   0  0  0  0  0  0  0  0  0  0  0  0
    0.4703   -0.9312    0.9170 H   0  0  0  0  0  0  0  0  0  0  0  0
    0.7397    0.8811   -2.1997 H   0  0  0  0  0  0  0  0  0  0  0  0
   -1.6898    1.3033   -1.7639 H   0  0  0  0  0  0  0  0  0  0  0  0
   -2.9776    1.2713    0.5658 N   0  0  0  0  0  0  0  0  0  0  0  0
   -3.4112    1.1748    1.7077 O   0  0  0  0  0  0  0  0  0  0  0  0
   -3.6117    1.6306   -0.4212 O   0  0  0  0  0  0  0  0  0  0  0  0
    1.0184    3.2505    2.0596 N   0  0  0  0  0  0  0  0  0  0  0  0
    1.3877    4.0950    2.6689 N   0  0  0  0  0  0  0  0  0  0  0  0
    2.8129    0.0238   -0.4769 B   0  0  0  0  0  0  0  0  0  0  0  0
    2.7730   -1.3503   -0.1920 F   0  0  0  0  0  0  0  0  0  0  0  0
    3.0287    0.2774   -1.8258 F   0  0  0  0  0  0  0  0  0  0  0  0
    3.6612    0.7270    0.3484 F   0  0  0  0  0  0  0  0  0  0  0  0
    1.4157    0.2837    2.2346 F   0  0  0  0  0  0  0  0  0  0  0  0
  1  7  1  0  0  0  0
  2  8  1  6  0  0  0
  2  1  1  0  0  0  0
  2 20  1  0  0  0  0
  3 16  1  6  0  0  0
  3  2  1  0  0  0  0
  4  5  2  0  0  0  0
  4  3  1  0  0  0  0
  5  6  1  0  0  0  0
  6 11  1  0  0  0  0
  6  1  2  0  0  0  0
  9  4  1  0  0  0  0
 10  5  1  0  0  0  0
 11 12  2  0  0  0  0
 13 11  2  0  0  0  0
 14 15  3  0  0  0  0
 16 17  1  0  0  0  0
 16 19  1  0  0  0  0
 18 16  1  0  0  0  0
M  RAD  1   3   2
M  END
