Coordinates from ORCA-job p-NO2-Ph-N2-BF4-B3LYPG-6-31G_dp-scan-d09-49-n400
 OpenBabel08281821153D

 20 19  0  0  1  0  0  0  0  0999 V2000
   -0.9261    0.5054    1.4186 C   0  0  0  0  0  0  0  0  0  0  0  0
    0.4857    0.1438    1.1867 C   0  0  1  0  0  0  0  0  0  0  0  0
    1.1410    0.5194   -0.0784 C   0  0  2  0  0  0  0  0  0  0  0  0
    0.2766    0.8484   -1.1425 C   0  0  0  0  0  0  0  0  0  0  0  0
   -1.0805    1.0264   -0.9502 C   0  0  0  0  0  0  0  0  0  0  0  0
   -1.6679    0.8541    0.3385 C   0  0  0  0  0  0  0  0  0  0  0  0
   -1.3580    0.4139    2.4091 H   0  0  0  0  0  0  0  0  0  0  0  0
    0.3992   -0.9449    0.8902 H   0  0  0  0  0  0  0  0  0  0  0  0
    0.7277    1.0281   -2.1125 H   0  0  0  0  0  0  0  0  0  0  0  0
   -1.7348    1.3235   -1.7634 H   0  0  0  0  0  0  0  0  0  0  0  0
   -3.1120    1.1368    0.5071 N   0  0  0  0  0  0  0  0  0  0  0  0
   -3.5872    0.9693    1.6238 O   0  0  0  0  0  0  0  0  0  0  0  0
   -3.7197    1.5167   -0.4887 O   0  0  0  0  0  0  0  0  0  0  0  0
    1.5112    3.1074    1.8590 N   0  0  0  0  0  0  0  0  0  0  0  0
    2.4374    3.6846    2.0296 N   0  0  0  0  0  0  0  0  0  0  0  0
    2.7797    0.2575   -0.3080 B   0  0  0  0  0  0  0  0  0  0  0  0
    2.9014   -1.1045   -0.0140 F   0  0  0  0  0  0  0  0  0  0  0  0
    3.0400    0.5394   -1.6435 F   0  0  0  0  0  0  0  0  0  0  0  0
    3.4830    1.0711    0.5594 F   0  0  0  0  0  0  0  0  0  0  0  0
    1.2464    0.2221    2.3119 F   0  0  0  0  0  0  0  0  0  0  0  0
  1  7  1  0  0  0  0
  2  8  1  6  0  0  0
  2  1  1  0  0  0  0
  2 20  1  0  0  0  0
  3 16  1  6  0  0  0
  3  2  1  0  0  0  0
  4  5  2  0  0  0  0
  4  3  1  0  0  0  0
  5  6  1  0  0  0  0
  6 11  1  0  0  0  0
  6  1  2  0  0  0  0
  9  4  1  0  0  0  0
 10  5  1  0  0  0  0
 11 12  2  0  0  0  0
 13 11  2  0  0  0  0
 14 15  3  0  0  0  0
 16 17  1  0  0  0  0
 16 19  1  0  0  0  0
 18 16  1  0  0  0  0
M  RAD  1   3   2
M  END
