Coordinates from ORCA-job p-NO2-Ph-N2-BF4-B3LYPG-6-31G_dp-scan-d09-49-n400
 OpenBabel08281821153D

 20 20  0  0  1  0  0  0  0  0999 V2000
   -0.9920    0.4284    1.4404 C   0  0  0  0  0  0  0  0  0  0  0  0
    0.4554    0.0782    1.2521 C   0  0  1  0  0  0  0  0  0  0  0  0
    1.1763    0.9382    0.2031 C   0  0  1  0  0  0  0  0  0  0  0  0
    0.2933    1.1791   -0.9991 C   0  0  0  0  0  0  0  0  0  0  0  0
   -1.0459    1.1461   -0.9065 C   0  0  0  0  0  0  0  0  0  0  0  0
   -1.6786    0.8767    0.3816 C   0  0  0  0  0  0  0  0  0  0  0  0
   -1.4681    0.2365    2.3949 H   0  0  0  0  0  0  0  0  0  0  0  0
    0.5219   -0.9633    0.8984 H   0  0  0  0  0  0  0  0  0  0  0  0
    0.7883    1.4203   -1.9328 H   0  0  0  0  0  0  0  0  0  0  0  0
   -1.6859    1.3404   -1.7581 H   0  0  0  0  0  0  0  0  0  0  0  0
   -3.1263    1.1283    0.5121 N   0  0  0  0  0  0  0  0  0  0  0  0
   -3.6503    0.9177    1.6020 O   0  0  0  0  0  0  0  0  0  0  0  0
   -3.7099    1.5336   -0.4920 O   0  0  0  0  0  0  0  0  0  0  0  0
    1.4224    2.2899    0.8747 N   0  0  0  0  0  0  0  0  0  0  0  0
    2.5144    2.6248    1.1514 N   0  0  0  0  0  0  0  0  0  0  0  0
    2.6767    0.3925   -0.1571 B   0  0  0  0  0  0  0  0  0  0  0  0
    3.0290   -0.7902    0.3852 F   0  0  0  0  0  0  0  0  0  0  0  0
    3.0906    0.6346   -1.4219 F   0  0  0  0  0  0  0  0  0  0  0  0
    3.5061    1.5455    0.7431 F   0  0  0  0  0  0  0  0  0  0  0  0
    1.1256    0.1613    2.4612 F   0  0  0  0  0  0  0  0  0  0  0  0
  1  7  1  0  0  0  0
  2  8  1  6  0  0  0
  2  1  1  0  0  0  0
  2 20  1  0  0  0  0
  3 16  1  6  0  0  0
  3 14  1  0  0  0  0
  3  2  1  0  0  0  0
  4  5  2  0  0  0  0
  4  3  1  0  0  0  0
  5  6  1  0  0  0  0
  6 11  1  0  0  0  0
  6  1  2  0  0  0  0
  9  4  1  0  0  0  0
 10  5  1  0  0  0  0
 11 12  2  0  0  0  0
 13 11  2  0  0  0  0
 14 15  1  0  0  0  0
 16 17  1  0  0  0  0
 18 16  1  0  0  0  0
 19 15  1  0  0  0  0
M  RAD  2  14   2  15   2
M  END
