Coordinates from ORCA-job p-NO2-Ph-N2-BF4-B3LYPG-6-31G_dp-scan-d09-49-n400
 OpenBabel08281821153D

 20 19  0  0  1  0  0  0  0  0999 V2000
   -0.9795    0.4962    1.4231 C   0  0  0  0  0  0  0  0  0  0  0  0
    0.4440    0.1690    1.2125 C   0  0  1  0  0  0  0  0  0  0  0  0
    1.1114    0.5730   -0.0370 C   0  0  2  0  0  0  0  0  0  0  0  0
    0.2596    0.8837   -1.1149 C   0  0  0  0  0  0  0  0  0  0  0  0
   -1.1050    1.0311   -0.9440 C   0  0  0  0  0  0  0  0  0  0  0  0
   -1.7099    0.8379    0.3326 C   0  0  0  0  0  0  0  0  0  0  0  0
   -1.4262    0.3851    2.4051 H   0  0  0  0  0  0  0  0  0  0  0  0
    0.3825   -0.9180    0.9001 H   0  0  0  0  0  0  0  0  0  0  0  0
    0.7217    1.0803   -2.0764 H   0  0  0  0  0  0  0  0  0  0  0  0
   -1.7515    1.3198   -1.7664 H   0  0  0  0  0  0  0  0  0  0  0  0
   -3.1631    1.0877    0.4784 N   0  0  0  0  0  0  0  0  0  0  0  0
   -3.6529    0.8994    1.5850 O   0  0  0  0  0  0  0  0  0  0  0  0
   -3.7610    1.4630   -0.5248 O   0  0  0  0  0  0  0  0  0  0  0  0
    1.6948    3.0934    1.7497 N   0  0  0  0  0  0  0  0  0  0  0  0
    2.7958    2.9959    1.6676 N   0  0  0  0  0  0  0  0  0  0  0  0
    2.7685    0.4047   -0.2226 B   0  0  0  0  0  0  0  0  0  0  0  0
    3.0130   -0.9092    0.1680 F   0  0  0  0  0  0  0  0  0  0  0  0
    3.0421    0.6326   -1.5636 F   0  0  0  0  0  0  0  0  0  0  0  0
    3.3757    1.3475    0.6094 F   0  0  0  0  0  0  0  0  0  0  0  0
    1.1830    0.2457    2.3510 F   0  0  0  0  0  0  0  0  0  0  0  0
  1  7  1  0  0  0  0
  2  8  1  6  0  0  0
  2  1  1  0  0  0  0
  2 20  1  0  0  0  0
  3 16  1  6  0  0  0
  3  2  1  0  0  0  0
  4  5  2  0  0  0  0
  4  3  1  0  0  0  0
  5  6  1  0  0  0  0
  6 11  1  0  0  0  0
  6  1  2  0  0  0  0
  9  4  1  0  0  0  0
 10  5  1  0  0  0  0
 11 12  2  0  0  0  0
 13 11  2  0  0  0  0
 15 14  3  0  0  0  0
 16 17  1  0  0  0  0
 16 19  1  0  0  0  0
 18 16  1  0  0  0  0
M  RAD  1   3   2
M  END
