Coordinates from ORCA-job p-NO2-Ph-N2-BF4-B3LYPG-6-31G_dp-scan-d09-49-n400
 OpenBabel08281821153D

 20 19  0  0  1  0  0  0  0  0999 V2000
   -0.9348    0.5029    1.4194 C   0  0  0  0  0  0  0  0  0  0  0  0
    0.4789    0.1462    1.1905 C   0  0  1  0  0  0  0  0  0  0  0  0
    1.1365    0.5270   -0.0719 C   0  0  2  0  0  0  0  0  0  0  0  0
    0.2738    0.8541   -1.1380 C   0  0  0  0  0  0  0  0  0  0  0  0
   -1.0844    1.0276   -0.9489 C   0  0  0  0  0  0  0  0  0  0  0  0
   -1.6746    0.8515    0.3380 C   0  0  0  0  0  0  0  0  0  0  0  0
   -1.3691    0.4077    2.4086 H   0  0  0  0  0  0  0  0  0  0  0  0
    0.3963   -0.9421    0.8913 H   0  0  0  0  0  0  0  0  0  0  0  0
    0.7269    1.0367   -2.1065 H   0  0  0  0  0  0  0  0  0  0  0  0
   -1.7374    1.3240   -1.7633 H   0  0  0  0  0  0  0  0  0  0  0  0
   -3.1201    1.1295    0.5033 N   0  0  0  0  0  0  0  0  0  0  0  0
   -3.5977    0.9585    1.6184 O   0  0  0  0  0  0  0  0  0  0  0  0
   -3.7262    1.5093   -0.4935 O   0  0  0  0  0  0  0  0  0  0  0  0
    1.5314    3.0971    1.8337 N   0  0  0  0  0  0  0  0  0  0  0  0
    2.5029    3.6004    1.9856 N   0  0  0  0  0  0  0  0  0  0  0  0
    2.7787    0.2791   -0.2956 B   0  0  0  0  0  0  0  0  0  0  0  0
    2.9172   -1.0782    0.0102 F   0  0  0  0  0  0  0  0  0  0  0  0
    3.0384    0.5533   -1.6331 F   0  0  0  0  0  0  0  0  0  0  0  0
    3.4701    1.1098    0.5665 F   0  0  0  0  0  0  0  0  0  0  0  0
    1.2361    0.2242    2.3182 F   0  0  0  0  0  0  0  0  0  0  0  0
  1  7  1  0  0  0  0
  2  8  1  6  0  0  0
  2  1  1  0  0  0  0
  2 20  1  0  0  0  0
  3 16  1  6  0  0  0
  3  2  1  0  0  0  0
  4  5  2  0  0  0  0
  4  3  1  0  0  0  0
  5  6  1  0  0  0  0
  6 11  1  0  0  0  0
  6  1  2  0  0  0  0
  9  4  1  0  0  0  0
 10  5  1  0  0  0  0
 11 12  2  0  0  0  0
 13 11  2  0  0  0  0
 14 15  3  0  0  0  0
 16 17  1  0  0  0  0
 16 19  1  0  0  0  0
 18 16  1  0  0  0  0
M  RAD  1   3   2
M  END
