Coordinates from ORCA-job p-NO2-Ph-N2-BF4-B3LYPG-6-31G_dp-scan-d09-49-n400
 OpenBabel08281821153D

 20 20  0  0  1  0  0  0  0  0999 V2000
   -0.9145    0.5054    1.4493 C   0  0  0  0  0  0  0  0  0  0  0  0
    0.5185    0.1299    1.2341 C   0  0  1  0  0  0  0  0  0  0  0  0
    1.2188    0.9373    0.1184 C   0  0  1  0  0  0  0  0  0  0  0  0
    0.2822    1.1129   -1.0698 C   0  0  0  0  0  0  0  0  0  0  0  0
   -1.0527    1.0769   -0.9362 C   0  0  0  0  0  0  0  0  0  0  0  0
   -1.6391    0.8677    0.3828 C   0  0  0  0  0  0  0  0  0  0  0  0
   -1.3575    0.3900    2.4314 H   0  0  0  0  0  0  0  0  0  0  0  0
    0.5572   -0.9411    0.9836 H   0  0  0  0  0  0  0  0  0  0  0  0
    0.7295    1.3792   -2.0225 H   0  0  0  0  0  0  0  0  0  0  0  0
   -1.7190    1.2689   -1.7671 H   0  0  0  0  0  0  0  0  0  0  0  0
   -3.0839    1.1112    0.5474 N   0  0  0  0  0  0  0  0  0  0  0  0
   -3.5680    0.9793    1.6687 O   0  0  0  0  0  0  0  0  0  0  0  0
   -3.7121    1.4318   -0.4610 O   0  0  0  0  0  0  0  0  0  0  0  0
    1.4636    2.3658    0.6185 N   0  0  0  0  0  0  0  0  0  0  0  0
    2.5280    2.5243    1.3026 N   0  0  0  0  0  0  0  0  0  0  0  0
    2.5039    0.1799   -0.4093 B   0  0  0  0  0  0  0  0  0  0  0  0
    2.7355   -1.0968   -0.1342 F   0  0  0  0  0  0  0  0  0  0  0  0
    3.3744    0.8049   -1.1913 F   0  0  0  0  0  0  0  0  0  0  0  0
    3.1390    1.8017    1.4656 F   0  0  0  0  0  0  0  0  0  0  0  0
    1.2395    0.2896    2.4219 F   0  0  0  0  0  0  0  0  0  0  0  0
  1  7  1  0  0  0  0
  2  8  1  6  0  0  0
  2  1  1  0  0  0  0
  2 20  1  0  0  0  0
  3 16  1  6  0  0  0
  3 14  1  0  0  0  0
  3  2  1  0  0  0  0
  4  5  2  0  0  0  0
  4  3  1  0  0  0  0
  5  6  1  0  0  0  0
  6 11  1  0  0  0  0
  6  1  2  0  0  0  0
  9  4  1  0  0  0  0
 10  5  1  0  0  0  0
 11 12  2  0  0  0  0
 13 11  2  0  0  0  0
 14 15  2  0  0  0  0
 15 19  1  0  0  0  0
 16 17  1  0  0  0  0
 18 16  1  0  0  0  0
M  END
