Coordinates from ORCA-job p-NO2-Ph-N2-BF4-B3LYPG-6-31G_dp-scan-d09-49-n400
 OpenBabel08281821153D

 20 20  0  0  1  0  0  0  0  0999 V2000
   -0.9702    0.4474    1.4401 C   0  0  0  0  0  0  0  0  0  0  0  0
    0.4685    0.0701    1.2353 C   0  0  1  0  0  0  0  0  0  0  0  0
    1.1875    0.9254    0.1722 C   0  0  1  0  0  0  0  0  0  0  0  0
    0.2845    1.1398   -1.0303 C   0  0  0  0  0  0  0  0  0  0  0  0
   -1.0525    1.1213   -0.9191 C   0  0  0  0  0  0  0  0  0  0  0  0
   -1.6682    0.8811    0.3832 C   0  0  0  0  0  0  0  0  0  0  0  0
   -1.4326    0.2818    2.4061 H   0  0  0  0  0  0  0  0  0  0  0  0
    0.5065   -0.9761    0.8925 H   0  0  0  0  0  0  0  0  0  0  0  0
    0.7632    1.3742   -1.9748 H   0  0  0  0  0  0  0  0  0  0  0  0
   -1.7025    1.3140   -1.7632 H   0  0  0  0  0  0  0  0  0  0  0  0
   -3.1106    1.1502    0.5311 N   0  0  0  0  0  0  0  0  0  0  0  0
   -3.6196    0.9694    1.6335 O   0  0  0  0  0  0  0  0  0  0  0  0
   -3.7071    1.5372   -0.4728 O   0  0  0  0  0  0  0  0  0  0  0  0
    1.3903    2.2869    0.8053 N   0  0  0  0  0  0  0  0  0  0  0  0
    2.4746    2.6251    1.1965 N   0  0  0  0  0  0  0  0  0  0  0  0
    2.6118    0.3080   -0.2378 B   0  0  0  0  0  0  0  0  0  0  0  0
    3.0243   -0.8361    0.3001 F   0  0  0  0  0  0  0  0  0  0  0  0
    3.1722    0.7096   -1.3789 F   0  0  0  0  0  0  0  0  0  0  0  0
    3.4648    1.6430    0.9799 F   0  0  0  0  0  0  0  0  0  0  0  0
    1.1579    0.1466    2.4339 F   0  0  0  0  0  0  0  0  0  0  0  0
  1  7  1  0  0  0  0
  2  8  1  6  0  0  0
  2  1  1  0  0  0  0
  2 20  1  0  0  0  0
  3 16  1  6  0  0  0
  3 14  1  0  0  0  0
  3  2  1  0  0  0  0
  4  5  2  0  0  0  0
  4  3  1  0  0  0  0
  5  6  1  0  0  0  0
  6 11  1  0  0  0  0
  6  1  2  0  0  0  0
  9  4  1  0  0  0  0
 10  5  1  0  0  0  0
 11 12  2  0  0  0  0
 13 11  2  0  0  0  0
 14 15  1  0  0  0  0
 16 17  1  0  0  0  0
 18 16  1  0  0  0  0
 19 15  1  0  0  0  0
M  RAD  2  14   2  15   2
M  END
