Coordinates from ORCA-job p-NO2-Ph-N2-BF4-B3LYPG-6-31G_dp-scan-d09-49-n400
 OpenBabel08281821153D

 20 19  0  0  1  0  0  0  0  0999 V2000
   -0.9855    0.4793    1.4339 C   0  0  0  0  0  0  0  0  0  0  0  0
    0.4404    0.1568    1.2288 C   0  0  1  0  0  0  0  0  0  0  0  0
    1.1160    0.6036   -0.0018 C   0  0  2  0  0  0  0  0  0  0  0  0
    0.2742    0.9280   -1.0833 C   0  0  0  0  0  0  0  0  0  0  0  0
   -1.0925    1.0635   -0.9221 C   0  0  0  0  0  0  0  0  0  0  0  0
   -1.7073    0.8440    0.3455 C   0  0  0  0  0  0  0  0  0  0  0  0
   -1.4406    0.3439    2.4089 H   0  0  0  0  0  0  0  0  0  0  0  0
    0.3874   -0.9240    0.8979 H   0  0  0  0  0  0  0  0  0  0  0  0
    0.7431    1.1472   -2.0364 H   0  0  0  0  0  0  0  0  0  0  0  0
   -1.7332    1.3651   -1.7445 H   0  0  0  0  0  0  0  0  0  0  0  0
   -3.1619    1.0882    0.4843 N   0  0  0  0  0  0  0  0  0  0  0  0
   -3.6601    0.8794    1.5836 O   0  0  0  0  0  0  0  0  0  0  0  0
   -3.7529    1.4796   -0.5168 O   0  0  0  0  0  0  0  0  0  0  0  0
    1.6490    2.9768    1.4982 N   0  0  0  0  0  0  0  0  0  0  0  0
    2.7580    2.8784    1.5137 N   0  0  0  0  0  0  0  0  0  0  0  0
    2.7720    0.4313   -0.1825 B   0  0  0  0  0  0  0  0  0  0  0  0
    3.0169   -0.8793    0.2129 F   0  0  0  0  0  0  0  0  0  0  0  0
    3.0572    0.6646   -1.5182 F   0  0  0  0  0  0  0  0  0  0  0  0
    3.3935    1.3771    0.6556 F   0  0  0  0  0  0  0  0  0  0  0  0
    1.1694    0.2152    2.3754 F   0  0  0  0  0  0  0  0  0  0  0  0
  1  7  1  0  0  0  0
  2  8  1  6  0  0  0
  2  1  1  0  0  0  0
  2 20  1  0  0  0  0
  3 16  1  6  0  0  0
  3  2  1  0  0  0  0
  4  5  2  0  0  0  0
  4  3  1  0  0  0  0
  5  6  1  0  0  0  0
  6 11  1  0  0  0  0
  6  1  2  0  0  0  0
  9  4  1  0  0  0  0
 10  5  1  0  0  0  0
 11 12  2  0  0  0  0
 13 11  2  0  0  0  0
 14 15  3  0  0  0  0
 16 17  1  0  0  0  0
 16 19  1  0  0  0  0
 18 16  1  0  0  0  0
M  RAD  1   3   2
M  END
