Coordinates from ORCA-job p-NO2-Ph-N2-BF4-B3LYPG-6-31G_dp-scan-d09-49-n400
 OpenBabel08281821153D

 20 19  0  0  1  0  0  0  0  0999 V2000
   -0.7934    0.5849    1.4187 C   0  0  0  0  0  0  0  0  0  0  0  0
    0.5945    0.1617    1.1514 C   0  0  1  0  0  0  0  0  0  0  0  0
    1.2140    0.4506   -0.1550 C   0  0  2  0  0  0  0  0  0  0  0  0
    0.3215    0.7778   -1.1965 C   0  0  0  0  0  0  0  0  0  0  0  0
   -1.0190    1.0186   -0.9612 C   0  0  0  0  0  0  0  0  0  0  0  0
   -1.5635    0.9175    0.3534 C   0  0  0  0  0  0  0  0  0  0  0  0
   -1.1899    0.5511    2.4275 H   0  0  0  0  0  0  0  0  0  0  0  0
    0.4622   -0.9361    0.9135 H   0  0  0  0  0  0  0  0  0  0  0  0
    0.7407    0.8981   -2.1898 H   0  0  0  0  0  0  0  0  0  0  0  0
   -1.6917    1.3109   -1.7610 H   0  0  0  0  0  0  0  0  0  0  0  0
   -2.9879    1.2630    0.5637 N   0  0  0  0  0  0  0  0  0  0  0  0
   -3.4257    1.1591    1.7034 O   0  0  0  0  0  0  0  0  0  0  0  0
   -3.6190    1.6273   -0.4234 O   0  0  0  0  0  0  0  0  0  0  0  0
    1.0645    3.2247    2.0134 N   0  0  0  0  0  0  0  0  0  0  0  0
    1.4572    4.0682    2.6096 N   0  0  0  0  0  0  0  0  0  0  0  0
    2.8116    0.0436   -0.4610 B   0  0  0  0  0  0  0  0  0  0  0  0
    2.7865   -1.3309   -0.1785 F   0  0  0  0  0  0  0  0  0  0  0  0
    3.0322    0.3018   -1.8082 F   0  0  0  0  0  0  0  0  0  0  0  0
    3.6476    0.7558    0.3699 F   0  0  0  0  0  0  0  0  0  0  0  0
    1.4005    0.2709    2.2430 F   0  0  0  0  0  0  0  0  0  0  0  0
  1  7  1  0  0  0  0
  2  8  1  6  0  0  0
  2  1  1  0  0  0  0
  2 20  1  0  0  0  0
  3 16  1  6  0  0  0
  3  2  1  0  0  0  0
  4  5  2  0  0  0  0
  4  3  1  0  0  0  0
  5  6  1  0  0  0  0
  6 11  1  0  0  0  0
  6  1  2  0  0  0  0
  9  4  1  0  0  0  0
 10  5  1  0  0  0  0
 11 12  2  0  0  0  0
 13 11  2  0  0  0  0
 14 15  3  0  0  0  0
 16 17  1  0  0  0  0
 16 19  1  0  0  0  0
 18 16  1  0  0  0  0
M  RAD  1   3   2
M  END
