Coordinates from ORCA-job p-NO2-Ph-N2-BF4-B3LYPG-6-31G_dp-scan-d09-49-n400
 OpenBabel08281821153D

 20 19  0  0  1  0  0  0  0  0999 V2000
   -0.9539    0.5123    1.4181 C   0  0  0  0  0  0  0  0  0  0  0  0
    0.4654    0.1728    1.1977 C   0  0  1  0  0  0  0  0  0  0  0  0
    1.1242    0.5517   -0.0648 C   0  0  2  0  0  0  0  0  0  0  0  0
    0.2622    0.8587   -1.1369 C   0  0  0  0  0  0  0  0  0  0  0  0
   -1.0991    1.0175   -0.9546 C   0  0  0  0  0  0  0  0  0  0  0  0
   -1.6930    0.8436    0.3306 C   0  0  0  0  0  0  0  0  0  0  0  0
   -1.3911    0.4186    2.4061 H   0  0  0  0  0  0  0  0  0  0  0  0
    0.3964   -0.9181    0.9033 H   0  0  0  0  0  0  0  0  0  0  0  0
    0.7168    1.0387   -2.1052 H   0  0  0  0  0  0  0  0  0  0  0  0
   -1.7520    1.3000   -1.7741 H   0  0  0  0  0  0  0  0  0  0  0  0
   -3.1430    1.1039    0.4871 N   0  0  0  0  0  0  0  0  0  0  0  0
   -3.6238    0.9323    1.6005 O   0  0  0  0  0  0  0  0  0  0  0  0
   -3.7485    1.4704   -0.5149 O   0  0  0  0  0  0  0  0  0  0  0  0
    1.5880    3.1426    1.8938 N   0  0  0  0  0  0  0  0  0  0  0  0
    2.6839    3.2846    1.8779 N   0  0  0  0  0  0  0  0  0  0  0  0
    2.7733    0.3352   -0.2763 B   0  0  0  0  0  0  0  0  0  0  0  0
    2.9533   -1.0047    0.0732 F   0  0  0  0  0  0  0  0  0  0  0  0
    3.0313    0.5777   -1.6196 F   0  0  0  0  0  0  0  0  0  0  0  0
    3.4362    1.2159    0.5628 F   0  0  0  0  0  0  0  0  0  0  0  0
    1.2162    0.2650    2.3282 F   0  0  0  0  0  0  0  0  0  0  0  0
  1  7  1  0  0  0  0
  2  8  1  6  0  0  0
  2  1  1  0  0  0  0
  2 20  1  0  0  0  0
  3 16  1  6  0  0  0
  3  2  1  0  0  0  0
  4  5  2  0  0  0  0
  4  3  1  0  0  0  0
  5  6  1  0  0  0  0
  6 11  1  0  0  0  0
  6  1  2  0  0  0  0
  9  4  1  0  0  0  0
 10  5  1  0  0  0  0
 11 12  2  0  0  0  0
 13 11  2  0  0  0  0
 15 14  3  0  0  0  0
 16 17  1  0  0  0  0
 16 19  1  0  0  0  0
 18 16  1  0  0  0  0
M  RAD  1   3   2
M  END
