Coordinates from ORCA-job p-NO2-Ph-N2-BF4-B3LYPG-6-31G_dp-scan-d09-49-n400
 OpenBabel08281821153D

 20 19  0  0  1  0  0  0  0  0999 V2000
   -0.8830    0.5257    1.4195 C   0  0  0  0  0  0  0  0  0  0  0  0
    0.5188    0.1352    1.1724 C   0  0  1  0  0  0  0  0  0  0  0  0
    1.1632    0.4852   -0.1056 C   0  0  2  0  0  0  0  0  0  0  0  0
    0.2900    0.8196   -1.1614 C   0  0  0  0  0  0  0  0  0  0  0  0
   -1.0604    1.0248   -0.9526 C   0  0  0  0  0  0  0  0  0  0  0  0
   -1.6330    0.8773    0.3462 C   0  0  0  0  0  0  0  0  0  0  0  0
   -1.3031    0.4521    2.4166 H   0  0  0  0  0  0  0  0  0  0  0  0
    0.4104   -0.9557    0.8929 H   0  0  0  0  0  0  0  0  0  0  0  0
    0.7312    0.9804   -2.1392 H   0  0  0  0  0  0  0  0  0  0  0  0
   -1.7204    1.3255   -1.7598 H   0  0  0  0  0  0  0  0  0  0  0  0
   -3.0689    1.1895    0.5316 N   0  0  0  0  0  0  0  0  0  0  0  0
   -3.5309    1.0462    1.6572 O   0  0  0  0  0  0  0  0  0  0  0  0
   -3.6830    1.5709   -0.4597 O   0  0  0  0  0  0  0  0  0  0  0  0
    1.4423    3.1071    1.7982 N   0  0  0  0  0  0  0  0  0  0  0  0
    2.0360    3.8861    2.3111 N   0  0  0  0  0  0  0  0  0  0  0  0
    2.7912    0.1829   -0.3578 B   0  0  0  0  0  0  0  0  0  0  0  0
    2.8802   -1.1813   -0.0577 F   0  0  0  0  0  0  0  0  0  0  0  0
    3.0378    0.4487   -1.6994 F   0  0  0  0  0  0  0  0  0  0  0  0
    3.5291    0.9820    0.4937 F   0  0  0  0  0  0  0  0  0  0  0  0
    1.2955    0.2166    2.2867 F   0  0  0  0  0  0  0  0  0  0  0  0
  1  7  1  0  0  0  0
  2  8  1  6  0  0  0
  2  1  1  0  0  0  0
  2 20  1  0  0  0  0
  3 16  1  6  0  0  0
  3  2  1  0  0  0  0
  4  5  2  0  0  0  0
  4  3  1  0  0  0  0
  5  6  1  0  0  0  0
  6 11  1  0  0  0  0
  6  1  2  0  0  0  0
  9  4  1  0  0  0  0
 10  5  1  0  0  0  0
 11 12  2  0  0  0  0
 13 11  2  0  0  0  0
 14 15  3  0  0  0  0
 16 17  1  0  0  0  0
 16 19  1  0  0  0  0
 18 16  1  0  0  0  0
M  RAD  1   3   2
M  END
