Coordinates from ORCA-job p-NO2-Ph-N2-BF4-B3LYPG-6-31G_dp-scan-d09-49-n400
 OpenBabel08281821153D

 20 20  0  0  1  0  0  0  0  0999 V2000
   -0.9339    0.4853    1.4435 C   0  0  0  0  0  0  0  0  0  0  0  0
    0.4989    0.0982    1.2263 C   0  0  1  0  0  0  0  0  0  0  0  0
    1.2053    0.9267    0.1296 C   0  0  1  0  0  0  0  0  0  0  0  0
    0.2775    1.1086   -1.0647 C   0  0  0  0  0  0  0  0  0  0  0  0
   -1.0575    1.0880   -0.9333 C   0  0  0  0  0  0  0  0  0  0  0  0
   -1.6511    0.8790    0.3837 C   0  0  0  0  0  0  0  0  0  0  0  0
   -1.3795    0.3544    2.4226 H   0  0  0  0  0  0  0  0  0  0  0  0
    0.5246   -0.9603    0.9232 H   0  0  0  0  0  0  0  0  0  0  0  0
    0.7340    1.3458   -2.0201 H   0  0  0  0  0  0  0  0  0  0  0  0
   -1.7206    1.2728   -1.7687 H   0  0  0  0  0  0  0  0  0  0  0  0
   -3.0919    1.1453    0.5475 N   0  0  0  0  0  0  0  0  0  0  0  0
   -3.5816    1.0001    1.6641 O   0  0  0  0  0  0  0  0  0  0  0  0
   -3.7093    1.4924   -0.4587 O   0  0  0  0  0  0  0  0  0  0  0  0
    1.4100    2.3244    0.6939 N   0  0  0  0  0  0  0  0  0  0  0  0
    2.4693    2.5852    1.2705 N   0  0  0  0  0  0  0  0  0  0  0  0
    2.5517    0.2321   -0.3481 B   0  0  0  0  0  0  0  0  0  0  0  0
    2.9102   -0.9674    0.0839 F   0  0  0  0  0  0  0  0  0  0  0  0
    3.2802    0.7985   -1.2993 F   0  0  0  0  0  0  0  0  0  0  0  0
    3.2977    1.7036    1.3224 F   0  0  0  0  0  0  0  0  0  0  0  0
    1.2091    0.2058    2.4145 F   0  0  0  0  0  0  0  0  0  0  0  0
  1  7  1  0  0  0  0
  2  8  1  6  0  0  0
  2  1  1  0  0  0  0
  2 20  1  0  0  0  0
  3 16  1  6  0  0  0
  3 14  1  0  0  0  0
  3  2  1  0  0  0  0
  4  5  2  0  0  0  0
  4  3  1  0  0  0  0
  5  6  1  0  0  0  0
  6 11  1  0  0  0  0
  6  1  2  0  0  0  0
  9  4  1  0  0  0  0
 10  5  1  0  0  0  0
 11 12  2  0  0  0  0
 13 11  2  0  0  0  0
 14 15  2  0  0  0  0
 15 19  1  0  0  0  0
 16 17  1  0  0  0  0
 18 16  1  0  0  0  0
M  END
