Coordinates from ORCA-job p-NO2-Ph-N2-BF4-B3LYPG-6-31G_dp-scan-d09-49-n400
 OpenBabel08281821153D

 20 19  0  0  1  0  0  0  0  0999 V2000
   -0.9326    0.4818    1.4230 C   0  0  0  0  0  0  0  0  0  0  0  0
    0.4789    0.1179    1.1905 C   0  0  1  0  0  0  0  0  0  0  0  0
    1.1405    0.5131   -0.0652 C   0  0  2  0  0  0  0  0  0  0  0  0
    0.2816    0.8632   -1.1276 C   0  0  0  0  0  0  0  0  0  0  0  0
   -1.0752    1.0429   -0.9377 C   0  0  0  0  0  0  0  0  0  0  0  0
   -1.6683    0.8521    0.3462 C   0  0  0  0  0  0  0  0  0  0  0  0
   -1.3691    0.3745    2.4099 H   0  0  0  0  0  0  0  0  0  0  0  0
    0.3895   -0.9658    0.8774 H   0  0  0  0  0  0  0  0  0  0  0  0
    0.7375    1.0586   -2.0924 H   0  0  0  0  0  0  0  0  0  0  0  0
   -1.7253    1.3558   -1.7483 H   0  0  0  0  0  0  0  0  0  0  0  0
   -3.1119    1.1381    0.5138 N   0  0  0  0  0  0  0  0  0  0  0  0
   -3.5918    0.9567    1.6263 O   0  0  0  0  0  0  0  0  0  0  0  0
   -3.7145    1.5349   -0.4785 O   0  0  0  0  0  0  0  0  0  0  0  0
    1.6018    3.0718    1.7123 N   0  0  0  0  0  0  0  0  0  0  0  0
    2.3667    3.8156    1.9985 N   0  0  0  0  0  0  0  0  0  0  0  0
    2.7789    0.2496   -0.2906 B   0  0  0  0  0  0  0  0  0  0  0  0
    2.8898   -1.1224   -0.0405 F   0  0  0  0  0  0  0  0  0  0  0  0
    3.0524    0.5736   -1.6140 F   0  0  0  0  0  0  0  0  0  0  0  0
    3.4795    1.0294    0.6097 F   0  0  0  0  0  0  0  0  0  0  0  0
    1.2349    0.1774    2.3200 F   0  0  0  0  0  0  0  0  0  0  0  0
  1  7  1  0  0  0  0
  2  8  1  6  0  0  0
  2  1  1  0  0  0  0
  2 20  1  0  0  0  0
  3 16  1  6  0  0  0
  3  2  1  0  0  0  0
  4  5  2  0  0  0  0
  4  3  1  0  0  0  0
  5  6  1  0  0  0  0
  6 11  1  0  0  0  0
  6  1  2  0  0  0  0
  9  4  1  0  0  0  0
 10  5  1  0  0  0  0
 11 12  2  0  0  0  0
 13 11  2  0  0  0  0
 14 15  3  0  0  0  0
 16 17  1  0  0  0  0
 16 19  1  0  0  0  0
 18 16  1  0  0  0  0
M  RAD  1   3   2
M  END
