Coordinates from ORCA-job p-NO2-Ph-N2-BF4-B3LYPG-6-31G_dp-scan-d09-49-n400
 OpenBabel08281821153D

 20 19  0  0  1  0  0  0  0  0999 V2000
   -0.9801    0.4951    1.4240 C   0  0  0  0  0  0  0  0  0  0  0  0
    0.4436    0.1684    1.2138 C   0  0  1  0  0  0  0  0  0  0  0  0
    1.1116    0.5748   -0.0346 C   0  0  2  0  0  0  0  0  0  0  0  0
    0.2606    0.8865   -1.1127 C   0  0  0  0  0  0  0  0  0  0  0  0
   -1.1042    1.0333   -0.9424 C   0  0  0  0  0  0  0  0  0  0  0  0
   -1.7099    0.8383    0.3335 C   0  0  0  0  0  0  0  0  0  0  0  0
   -1.4274    0.3824    2.4055 H   0  0  0  0  0  0  0  0  0  0  0  0
    0.3826   -0.9182    0.9000 H   0  0  0  0  0  0  0  0  0  0  0  0
    0.7231    1.0846   -2.0736 H   0  0  0  0  0  0  0  0  0  0  0  0
   -1.7503    1.3230   -1.7648 H   0  0  0  0  0  0  0  0  0  0  0  0
   -3.1631    1.0877    0.4788 N   0  0  0  0  0  0  0  0  0  0  0  0
   -3.6536    0.8979    1.5849 O   0  0  0  0  0  0  0  0  0  0  0  0
   -3.7605    1.4641   -0.5243 O   0  0  0  0  0  0  0  0  0  0  0  0
    1.6926    3.0854    1.7301 N   0  0  0  0  0  0  0  0  0  0  0  0
    2.7940    2.9835    1.6563 N   0  0  0  0  0  0  0  0  0  0  0  0
    2.7688    0.4074   -0.2194 B   0  0  0  0  0  0  0  0  0  0  0  0
    3.0143   -0.9063    0.1710 F   0  0  0  0  0  0  0  0  0  0  0  0
    3.0434    0.6364   -1.5599 F   0  0  0  0  0  0  0  0  0  0  0  0
    3.3756    1.3506    0.6137 F   0  0  0  0  0  0  0  0  0  0  0  0
    1.1819    0.2438    2.3529 F   0  0  0  0  0  0  0  0  0  0  0  0
  1  7  1  0  0  0  0
  2  8  1  6  0  0  0
  2  1  1  0  0  0  0
  2 20  1  0  0  0  0
  3 16  1  6  0  0  0
  3  2  1  0  0  0  0
  4  5  2  0  0  0  0
  4  3  1  0  0  0  0
  5  6  1  0  0  0  0
  6 11  1  0  0  0  0
  6  1  2  0  0  0  0
  9  4  1  0  0  0  0
 10  5  1  0  0  0  0
 11 12  2  0  0  0  0
 13 11  2  0  0  0  0
 15 14  3  0  0  0  0
 16 17  1  0  0  0  0
 16 19  1  0  0  0  0
 18 16  1  0  0  0  0
M  RAD  1   3   2
M  END
