Coordinates from ORCA-job p-NO2-Ph-N2-BF4-B3LYPG-6-31G_dp-scan-d09-49-n400
 OpenBabel08281821153D

 20 19  0  0  1  0  0  0  0  0999 V2000
   -0.8500    0.5440    1.4221 C   0  0  0  0  0  0  0  0  0  0  0  0
    0.5468    0.1418    1.1674 C   0  0  1  0  0  0  0  0  0  0  0  0
    1.1838    0.4744   -0.1193 C   0  0  2  0  0  0  0  0  0  0  0  0
    0.3048    0.8106   -1.1696 C   0  0  0  0  0  0  0  0  0  0  0  0
   -1.0422    1.0285   -0.9515 C   0  0  0  0  0  0  0  0  0  0  0  0
   -1.6060    0.8933    0.3522 C   0  0  0  0  0  0  0  0  0  0  0  0
   -1.2627    0.4814    2.4231 H   0  0  0  0  0  0  0  0  0  0  0  0
    0.4306   -0.9509    0.8993 H   0  0  0  0  0  0  0  0  0  0  0  0
    0.7392    0.9603   -2.1523 H   0  0  0  0  0  0  0  0  0  0  0  0
   -1.7059    1.3296   -1.7556 H   0  0  0  0  0  0  0  0  0  0  0  0
   -3.0378    1.2178    0.5468 N   0  0  0  0  0  0  0  0  0  0  0  0
   -3.4926    1.0838    1.6765 O   0  0  0  0  0  0  0  0  0  0  0  0
   -3.6571    1.5963   -0.4424 O   0  0  0  0  0  0  0  0  0  0  0  0
    1.2990    3.1441    1.8466 N   0  0  0  0  0  0  0  0  0  0  0  0
    1.8012    3.9589    2.3985 N   0  0  0  0  0  0  0  0  0  0  0  0
    2.8006    0.1297   -0.3935 B   0  0  0  0  0  0  0  0  0  0  0  0
    2.8390   -1.2429   -0.1127 F   0  0  0  0  0  0  0  0  0  0  0  0
    3.0390    0.4029   -1.7350 F   0  0  0  0  0  0  0  0  0  0  0  0
    3.5803    0.8845    0.4574 F   0  0  0  0  0  0  0  0  0  0  0  0
    1.3332    0.2306    2.2748 F   0  0  0  0  0  0  0  0  0  0  0  0
  1  7  1  0  0  0  0
  2  8  1  6  0  0  0
  2  1  1  0  0  0  0
  2 20  1  0  0  0  0
  3 16  1  6  0  0  0
  3  2  1  0  0  0  0
  4  5  2  0  0  0  0
  4  3  1  0  0  0  0
  5  6  1  0  0  0  0
  6 11  1  0  0  0  0
  6  1  2  0  0  0  0
  9  4  1  0  0  0  0
 10  5  1  0  0  0  0
 11 12  2  0  0  0  0
 13 11  2  0  0  0  0
 14 15  3  0  0  0  0
 16 17  1  0  0  0  0
 16 19  1  0  0  0  0
 18 16  1  0  0  0  0
M  RAD  1   3   2
M  END
