Coordinates from ORCA-job p-NO2-Ph-N2-BF4-B3LYPG-6-31G_dp-scan-d09-49-n400
 OpenBabel08281821153D

 20 20  0  0  1  0  0  0  0  0999 V2000
   -0.9482    0.4727    1.4420 C   0  0  0  0  0  0  0  0  0  0  0  0
    0.4867    0.0880    1.2281 C   0  0  1  0  0  0  0  0  0  0  0  0
    1.1966    0.9267    0.1423 C   0  0  1  0  0  0  0  0  0  0  0  0
    0.2771    1.1172   -1.0551 C   0  0  0  0  0  0  0  0  0  0  0  0
   -1.0585    1.0980   -0.9295 C   0  0  0  0  0  0  0  0  0  0  0  0
   -1.6590    0.8808    0.3834 C   0  0  0  0  0  0  0  0  0  0  0  0
   -1.3989    0.3301    2.4171 H   0  0  0  0  0  0  0  0  0  0  0  0
    0.5155   -0.9653    0.9070 H   0  0  0  0  0  0  0  0  0  0  0  0
    0.7413    1.3488   -2.0079 H   0  0  0  0  0  0  0  0  0  0  0  0
   -1.7178    1.2825   -1.7682 H   0  0  0  0  0  0  0  0  0  0  0  0
   -3.1000    1.1500    0.5423 N   0  0  0  0  0  0  0  0  0  0  0  0
   -3.5958    0.9938    1.6547 O   0  0  0  0  0  0  0  0  0  0  0  0
   -3.7101    1.5110   -0.4632 O   0  0  0  0  0  0  0  0  0  0  0  0
    1.3979    2.3066    0.7357 N   0  0  0  0  0  0  0  0  0  0  0  0
    2.4630    2.6035    1.2460 N   0  0  0  0  0  0  0  0  0  0  0  0
    2.5766    0.2651   -0.3044 B   0  0  0  0  0  0  0  0  0  0  0  0
    2.9660   -0.9071    0.1750 F   0  0  0  0  0  0  0  0  0  0  0  0
    3.2392    0.7800   -1.3324 F   0  0  0  0  0  0  0  0  0  0  0  0
    3.3810    1.6545    1.2016 F   0  0  0  0  0  0  0  0  0  0  0  0
    1.1903    0.1818    2.4185 F   0  0  0  0  0  0  0  0  0  0  0  0
  1  7  1  0  0  0  0
  2  8  1  6  0  0  0
  2  1  1  0  0  0  0
  2 20  1  0  0  0  0
  3 16  1  6  0  0  0
  3 14  1  0  0  0  0
  3  2  1  0  0  0  0
  4  5  2  0  0  0  0
  4  3  1  0  0  0  0
  5  6  1  0  0  0  0
  6 11  1  0  0  0  0
  6  1  2  0  0  0  0
  9  4  1  0  0  0  0
 10  5  1  0  0  0  0
 11 12  2  0  0  0  0
 13 11  2  0  0  0  0
 14 15  1  0  0  0  0
 16 17  1  0  0  0  0
 18 16  1  0  0  0  0
 19 15  1  0  0  0  0
M  RAD  2  14   2  15   2
M  END
