Coordinates from ORCA-job p-NO2-Ph-N2-BF4-B3LYPG-6-31G_dp-scan-d09-49-n400
 OpenBabel08281821153D

 20 19  0  0  1  0  0  0  0  0999 V2000
   -0.9593    0.5177    1.4133 C   0  0  0  0  0  0  0  0  0  0  0  0
    0.4607    0.1808    1.1938 C   0  0  1  0  0  0  0  0  0  0  0  0
    1.1170    0.5511   -0.0725 C   0  0  2  0  0  0  0  0  0  0  0  0
    0.2531    0.8481   -1.1457 C   0  0  0  0  0  0  0  0  0  0  0  0
   -1.1084    1.0048   -0.9630 C   0  0  0  0  0  0  0  0  0  0  0  0
   -1.7005    0.8389    0.3240 C   0  0  0  0  0  0  0  0  0  0  0  0
   -1.3952    0.4303    2.4024 H   0  0  0  0  0  0  0  0  0  0  0  0
    0.3936   -0.9124    0.9062 H   0  0  0  0  0  0  0  0  0  0  0  0
    0.7061    1.0222   -2.1159 H   0  0  0  0  0  0  0  0  0  0  0  0
   -1.7630    1.2795   -1.7839 H   0  0  0  0  0  0  0  0  0  0  0  0
   -3.1510    1.0963    0.4802 N   0  0  0  0  0  0  0  0  0  0  0  0
   -3.6301    0.9311    1.5954 O   0  0  0  0  0  0  0  0  0  0  0  0
   -3.7585    1.4543   -0.5236 O   0  0  0  0  0  0  0  0  0  0  0  0
    1.6457    3.1616    1.9600 N   0  0  0  0  0  0  0  0  0  0  0  0
    2.7460    3.2527    1.9088 N   0  0  0  0  0  0  0  0  0  0  0  0
    2.7678    0.3454   -0.2803 B   0  0  0  0  0  0  0  0  0  0  0  0
    2.9649   -0.9860    0.0892 F   0  0  0  0  0  0  0  0  0  0  0  0
    3.0253    0.5724   -1.6261 F   0  0  0  0  0  0  0  0  0  0  0  0
    3.4165    1.2480    0.5480 F   0  0  0  0  0  0  0  0  0  0  0  0
    1.2124    0.2819    2.3226 F   0  0  0  0  0  0  0  0  0  0  0  0
  1  7  1  0  0  0  0
  2  8  1  6  0  0  0
  2  1  1  0  0  0  0
  2 20  1  0  0  0  0
  3 16  1  6  0  0  0
  3  2  1  0  0  0  0
  4  5  2  0  0  0  0
  4  3  1  0  0  0  0
  5  6  1  0  0  0  0
  6 11  1  0  0  0  0
  6  1  2  0  0  0  0
  9  4  1  0  0  0  0
 10  5  1  0  0  0  0
 11 12  2  0  0  0  0
 13 11  2  0  0  0  0
 15 14  3  0  0  0  0
 16 17  1  0  0  0  0
 16 19  1  0  0  0  0
 18 16  1  0  0  0  0
M  RAD  1   3   2
M  END
