Coordinates from ORCA-job p-NO2-Ph-N2-BF4-B3LYPG-6-31G_dp-scan-d09-49-n400
 OpenBabel08281821153D

 20 20  0  0  1  0  0  0  0  0999 V2000
   -1.0021    0.4428    1.4507 C   0  0  0  0  0  0  0  0  0  0  0  0
    0.4528    0.1300    1.2768 C   0  0  1  0  0  0  0  0  0  0  0  0
    1.1658    0.9543    0.2092 C   0  0  1  0  0  0  0  0  0  0  0  0
    0.2982    1.2067   -0.9787 C   0  0  0  0  0  0  0  0  0  0  0  0
   -1.0451    1.1449   -0.8984 C   0  0  0  0  0  0  0  0  0  0  0  0
   -1.6882    0.8651    0.3788 C   0  0  0  0  0  0  0  0  0  0  0  0
   -1.4841    0.2442    2.4009 H   0  0  0  0  0  0  0  0  0  0  0  0
    0.5464   -0.9115    0.9233 H   0  0  0  0  0  0  0  0  0  0  0  0
    0.7992    1.4595   -1.9057 H   0  0  0  0  0  0  0  0  0  0  0  0
   -1.6795    1.3276   -1.7570 H   0  0  0  0  0  0  0  0  0  0  0  0
   -3.1444    1.0797    0.4881 N   0  0  0  0  0  0  0  0  0  0  0  0
   -3.6746    0.8649    1.5737 O   0  0  0  0  0  0  0  0  0  0  0  0
   -3.7247    1.4616   -0.5265 O   0  0  0  0  0  0  0  0  0  0  0  0
    1.4962    2.3401    0.9170 N   0  0  0  0  0  0  0  0  0  0  0  0
    2.5526    2.6673    1.1934 N   0  0  0  0  0  0  0  0  0  0  0  0
    2.7380    0.4383   -0.1320 B   0  0  0  0  0  0  0  0  0  0  0  0
    2.9163   -0.8436    0.3145 F   0  0  0  0  0  0  0  0  0  0  0  0
    3.0312    0.6429   -1.4562 F   0  0  0  0  0  0  0  0  0  0  0  0
    3.5751    1.3690    0.6747 F   0  0  0  0  0  0  0  0  0  0  0  0
    1.1139    0.2349    2.4864 F   0  0  0  0  0  0  0  0  0  0  0  0
  1  7  1  0  0  0  0
  2  8  1  6  0  0  0
  2  1  1  0  0  0  0
  2 20  1  0  0  0  0
  3 16  1  6  0  0  0
  3 14  1  0  0  0  0
  3  2  1  0  0  0  0
  4  5  2  0  0  0  0
  4  3  1  0  0  0  0
  5  6  1  0  0  0  0
  6 11  1  0  0  0  0
  6  1  2  0  0  0  0
  9  4  1  0  0  0  0
 10  5  1  0  0  0  0
 11 12  2  0  0  0  0
 13 11  2  0  0  0  0
 14 15  2  0  0  0  0
 16 17  1  0  0  0  0
 16 19  1  0  0  0  0
 18 16  1  0  0  0  0
M  RAD  1  15   2
M  END
