Coordinates from ORCA-job p-NO2-Ph-N2-BF4-B3LYPG-6-31G_dp-scan-d09-49-n400
 OpenBabel08281821153D

 20 19  0  0  1  0  0  0  0  0999 V2000
   -0.9277    0.5051    1.4187 C   0  0  0  0  0  0  0  0  0  0  0  0
    0.4846    0.1447    1.1875 C   0  0  1  0  0  0  0  0  0  0  0  0
    1.1403    0.5209   -0.0772 C   0  0  2  0  0  0  0  0  0  0  0  0
    0.2761    0.8493   -1.1417 C   0  0  0  0  0  0  0  0  0  0  0  0
   -1.0812    1.0264   -0.9500 C   0  0  0  0  0  0  0  0  0  0  0  0
   -1.6691    0.8536    0.3383 C   0  0  0  0  0  0  0  0  0  0  0  0
   -1.3601    0.4129    2.4090 H   0  0  0  0  0  0  0  0  0  0  0  0
    0.3990   -0.9440    0.8906 H   0  0  0  0  0  0  0  0  0  0  0  0
    0.7277    1.0293   -2.1115 H   0  0  0  0  0  0  0  0  0  0  0  0
   -1.7352    1.3233   -1.7635 H   0  0  0  0  0  0  0  0  0  0  0  0
   -3.1135    1.1352    0.5063 N   0  0  0  0  0  0  0  0  0  0  0  0
   -3.5892    0.9669    1.6226 O   0  0  0  0  0  0  0  0  0  0  0  0
   -3.7209    1.5147   -0.4898 O   0  0  0  0  0  0  0  0  0  0  0  0
    1.5152    3.1071    1.8559 N   0  0  0  0  0  0  0  0  0  0  0  0
    2.4487    3.6732    2.0244 N   0  0  0  0  0  0  0  0  0  0  0  0
    2.7796    0.2606   -0.3063 B   0  0  0  0  0  0  0  0  0  0  0  0
    2.9025   -1.1011   -0.0113 F   0  0  0  0  0  0  0  0  0  0  0  0
    3.0391    0.5415   -1.6424 F   0  0  0  0  0  0  0  0  0  0  0  0
    3.4824    1.0759    0.5603 F   0  0  0  0  0  0  0  0  0  0  0  0
    1.2446    0.2232    2.3132 F   0  0  0  0  0  0  0  0  0  0  0  0
  1  7  1  0  0  0  0
  2  8  1  6  0  0  0
  2  1  1  0  0  0  0
  2 20  1  0  0  0  0
  3 16  1  6  0  0  0
  3  2  1  0  0  0  0
  4  5  2  0  0  0  0
  4  3  1  0  0  0  0
  5  6  1  0  0  0  0
  6 11  1  0  0  0  0
  6  1  2  0  0  0  0
  9  4  1  0  0  0  0
 10  5  1  0  0  0  0
 11 12  2  0  0  0  0
 13 11  2  0  0  0  0
 14 15  3  0  0  0  0
 16 17  1  0  0  0  0
 16 19  1  0  0  0  0
 18 16  1  0  0  0  0
M  RAD  1   3   2
M  END
