Coordinates from ORCA-job p-NO2-Ph-N2-BF4-B3LYPG-6-31G_dp-scan-d09-49-n400
 OpenBabel08281821153D

 20 19  0  0  1  0  0  0  0  0999 V2000
   -0.7616    0.6232    1.4063 C   0  0  0  0  0  0  0  0  0  0  0  0
    0.6202    0.1851    1.1332 C   0  0  1  0  0  0  0  0  0  0  0  0
    1.2237    0.4302   -0.1897 C   0  0  2  0  0  0  0  0  0  0  0  0
    0.3193    0.7327   -1.2280 C   0  0  0  0  0  0  0  0  0  0  0  0
   -1.0166    0.9893   -0.9820 C   0  0  0  0  0  0  0  0  0  0  0  0
   -1.5439    0.9295    0.3418 C   0  0  0  0  0  0  0  0  0  0  0  0
   -1.1446    0.6217    2.4207 H   0  0  0  0  0  0  0  0  0  0  0  0
    0.4788   -0.9182    0.9262 H   0  0  0  0  0  0  0  0  0  0  0  0
    0.7257    0.8209   -2.2300 H   0  0  0  0  0  0  0  0  0  0  0  0
   -1.6981    1.2628   -1.7810 H   0  0  0  0  0  0  0  0  0  0  0  0
   -2.9633    1.2901    0.5612 N   0  0  0  0  0  0  0  0  0  0  0  0
   -3.3856    1.2232    1.7095 O   0  0  0  0  0  0  0  0  0  0  0  0
   -3.6058    1.6287   -0.4275 O   0  0  0  0  0  0  0  0  0  0  0  0
    0.9633    3.2798    2.1924 N   0  0  0  0  0  0  0  0  0  0  0  0
    1.3113    4.1127    2.8296 N   0  0  0  0  0  0  0  0  0  0  0  0
    2.8138    0.0018   -0.5058 B   0  0  0  0  0  0  0  0  0  0  0  0
    2.7816   -1.3640   -0.1839 F   0  0  0  0  0  0  0  0  0  0  0  0
    3.0166    0.2203   -1.8629 F   0  0  0  0  0  0  0  0  0  0  0  0
    3.6668    0.7304    0.2927 F   0  0  0  0  0  0  0  0  0  0  0  0
    1.4415    0.3187    2.2103 F   0  0  0  0  0  0  0  0  0  0  0  0
  1  7  1  0  0  0  0
  2  8  1  6  0  0  0
  2  1  1  0  0  0  0
  2 20  1  0  0  0  0
  3 16  1  6  0  0  0
  3  2  1  0  0  0  0
  4  5  2  0  0  0  0
  4  3  1  0  0  0  0
  5  6  1  0  0  0  0
  6 11  1  0  0  0  0
  6  1  2  0  0  0  0
  9  4  1  0  0  0  0
 10  5  1  0  0  0  0
 11 12  2  0  0  0  0
 13 11  2  0  0  0  0
 14 15  3  0  0  0  0
 16 17  1  0  0  0  0
 16 19  1  0  0  0  0
 18 16  1  0  0  0  0
M  RAD  1   3   2
M  END
