Coordinates from ORCA-job p-NO2-Ph-N2-BF4-B3LYPG-6-31G_dp-scan-d09-49-n400
 OpenBabel08281821153D

 20 19  0  0  1  0  0  0  0  0999 V2000
   -0.9395    0.5113    1.4194 C   0  0  0  0  0  0  0  0  0  0  0  0
    0.4765    0.1622    1.1936 C   0  0  1  0  0  0  0  0  0  0  0  0
    1.1334    0.5391   -0.0705 C   0  0  2  0  0  0  0  0  0  0  0  0
    0.2698    0.8552   -1.1389 C   0  0  0  0  0  0  0  0  0  0  0  0
   -1.0897    1.0220   -0.9519 C   0  0  0  0  0  0  0  0  0  0  0  0
   -1.6803    0.8494    0.3351 C   0  0  0  0  0  0  0  0  0  0  0  0
   -1.3741    0.4192    2.4086 H   0  0  0  0  0  0  0  0  0  0  0  0
    0.4006   -0.9281    0.8997 H   0  0  0  0  0  0  0  0  0  0  0  0
    0.7226    1.0347   -2.1082 H   0  0  0  0  0  0  0  0  0  0  0  0
   -1.7435    1.3104   -1.7686 H   0  0  0  0  0  0  0  0  0  0  0  0
   -3.1277    1.1192    0.4972 N   0  0  0  0  0  0  0  0  0  0  0  0
   -3.6057    0.9501    1.6124 O   0  0  0  0  0  0  0  0  0  0  0  0
   -3.7347    1.4905   -0.5021 O   0  0  0  0  0  0  0  0  0  0  0  0
    1.5258    3.1240    1.8609 N   0  0  0  0  0  0  0  0  0  0  0  0
    2.5746    3.4574    1.9577 N   0  0  0  0  0  0  0  0  0  0  0  0
    2.7777    0.2993   -0.2917 B   0  0  0  0  0  0  0  0  0  0  0  0
    2.9254   -1.0537    0.0270 F   0  0  0  0  0  0  0  0  0  0  0  0
    3.0358    0.5633   -1.6312 F   0  0  0  0  0  0  0  0  0  0  0  0
    3.4639    1.1428    0.5630 F   0  0  0  0  0  0  0  0  0  0  0  0
    1.2321    0.2504    2.3216 F   0  0  0  0  0  0  0  0  0  0  0  0
  1  7  1  0  0  0  0
  2  8  1  6  0  0  0
  2  1  1  0  0  0  0
  2 20  1  0  0  0  0
  3 16  1  6  0  0  0
  3  2  1  0  0  0  0
  4  5  2  0  0  0  0
  4  3  1  0  0  0  0
  5  6  1  0  0  0  0
  6 11  1  0  0  0  0
  6  1  2  0  0  0  0
  9  4  1  0  0  0  0
 10  5  1  0  0  0  0
 11 12  2  0  0  0  0
 13 11  2  0  0  0  0
 14 15  3  0  0  0  0
 16 17  1  0  0  0  0
 16 19  1  0  0  0  0
 18 16  1  0  0  0  0
M  RAD  1   3   2
M  END
