Coordinates from ORCA-job p-NO2-Ph-N2-BF4-B3LYPG-6-31G_dp-scan-d09-49-n400
 OpenBabel08281821153D

 20 19  0  0  1  0  0  0  0  0999 V2000
   -0.9299    0.5045    1.4189 C   0  0  0  0  0  0  0  0  0  0  0  0
    0.4828    0.1452    1.1884 C   0  0  1  0  0  0  0  0  0  0  0  0
    1.1391    0.5228   -0.0756 C   0  0  2  0  0  0  0  0  0  0  0  0
    0.2753    0.8507   -1.1407 C   0  0  0  0  0  0  0  0  0  0  0  0
   -1.0823    1.0266   -0.9498 C   0  0  0  0  0  0  0  0  0  0  0  0
   -1.6709    0.8529    0.3382 C   0  0  0  0  0  0  0  0  0  0  0  0
   -1.3629    0.4115    2.4088 H   0  0  0  0  0  0  0  0  0  0  0  0
    0.3981   -0.9434    0.8909 H   0  0  0  0  0  0  0  0  0  0  0  0
    0.7273    1.0314   -2.1101 H   0  0  0  0  0  0  0  0  0  0  0  0
   -1.7360    1.3233   -1.7636 H   0  0  0  0  0  0  0  0  0  0  0  0
   -3.1157    1.1333    0.5053 N   0  0  0  0  0  0  0  0  0  0  0  0
   -3.5919    0.9643    1.6213 O   0  0  0  0  0  0  0  0  0  0  0  0
   -3.7227    1.5128   -0.4910 O   0  0  0  0  0  0  0  0  0  0  0  0
    1.5208    3.1041    1.8489 N   0  0  0  0  0  0  0  0  0  0  0  0
    2.4664    3.6510    2.0130 N   0  0  0  0  0  0  0  0  0  0  0  0
    2.7793    0.2664   -0.3030 B   0  0  0  0  0  0  0  0  0  0  0  0
    2.9069   -1.0941   -0.0051 F   0  0  0  0  0  0  0  0  0  0  0  0
    3.0390    0.5456   -1.6394 F   0  0  0  0  0  0  0  0  0  0  0  0
    3.4785    1.0861    0.5626 F   0  0  0  0  0  0  0  0  0  0  0  0
    1.2419    0.2237    2.3147 F   0  0  0  0  0  0  0  0  0  0  0  0
  1  7  1  0  0  0  0
  2  8  1  6  0  0  0
  2  1  1  0  0  0  0
  2 20  1  0  0  0  0
  3 16  1  6  0  0  0
  3  2  1  0  0  0  0
  4  5  2  0  0  0  0
  4  3  1  0  0  0  0
  5  6  1  0  0  0  0
  6 11  1  0  0  0  0
  6  1  2  0  0  0  0
  9  4  1  0  0  0  0
 10  5  1  0  0  0  0
 11 12  2  0  0  0  0
 13 11  2  0  0  0  0
 14 15  3  0  0  0  0
 16 17  1  0  0  0  0
 16 19  1  0  0  0  0
 18 16  1  0  0  0  0
M  RAD  1   3   2
M  END
