Coordinates from ORCA-job p-NO2-Ph-N2-BF4-B3LYPG-6-31G_dp-scan-d09-49-n400
 OpenBabel08281821153D

 20 20  0  0  1  0  0  0  0  0999 V2000
   -1.0030    0.4493    1.4545 C   0  0  0  0  0  0  0  0  0  0  0  0
    0.4515    0.1429    1.2810 C   0  0  1  0  0  0  0  0  0  0  0  0
    1.1624    0.9407    0.2011 C   0  0  1  0  0  0  0  0  0  0  0  0
    0.3008    1.1997   -0.9765 C   0  0  0  0  0  0  0  0  0  0  0  0
   -1.0456    1.1399   -0.8956 C   0  0  0  0  0  0  0  0  0  0  0  0
   -1.6904    0.8618    0.3783 C   0  0  0  0  0  0  0  0  0  0  0  0
   -1.4850    0.2530    2.4052 H   0  0  0  0  0  0  0  0  0  0  0  0
    0.5420   -0.9000    0.9250 H   0  0  0  0  0  0  0  0  0  0  0  0
    0.8005    1.4571   -1.9029 H   0  0  0  0  0  0  0  0  0  0  0  0
   -1.6793    1.3258   -1.7544 H   0  0  0  0  0  0  0  0  0  0  0  0
   -3.1483    1.0692    0.4829 N   0  0  0  0  0  0  0  0  0  0  0  0
   -3.6788    0.8562    1.5685 O   0  0  0  0  0  0  0  0  0  0  0  0
   -3.7280    1.4438   -0.5345 O   0  0  0  0  0  0  0  0  0  0  0  0
    1.5108    2.3768    0.9362 N   0  0  0  0  0  0  0  0  0  0  0  0
    2.5599    2.6978    1.2156 N   0  0  0  0  0  0  0  0  0  0  0  0
    2.7546    0.4420   -0.1310 B   0  0  0  0  0  0  0  0  0  0  0  0
    2.8876   -0.8614    0.2837 F   0  0  0  0  0  0  0  0  0  0  0  0
    3.0242    0.6541   -1.4631 F   0  0  0  0  0  0  0  0  0  0  0  0
    3.5921    1.3241    0.6720 F   0  0  0  0  0  0  0  0  0  0  0  0
    1.1152    0.2459    2.4871 F   0  0  0  0  0  0  0  0  0  0  0  0
  1  7  1  0  0  0  0
  2  8  1  6  0  0  0
  2  1  1  0  0  0  0
  2 20  1  0  0  0  0
  3 16  1  6  0  0  0
  3 14  1  0  0  0  0
  3  2  1  0  0  0  0
  4  5  2  0  0  0  0
  4  3  1  0  0  0  0
  5  6  1  0  0  0  0
  6 11  1  0  0  0  0
  6  1  2  0  0  0  0
  9  4  1  0  0  0  0
 10  5  1  0  0  0  0
 11 12  2  0  0  0  0
 13 11  2  0  0  0  0
 14 15  2  0  0  0  0
 16 17  1  0  0  0  0
 16 19  1  0  0  0  0
 18 16  1  0  0  0  0
M  RAD  1  15   2
M  END
