Coordinates from ORCA-job p-NO2-Ph-N2-BF4-B3LYPG-6-31G_dp-scan-d09-49-n400
 OpenBabel08281821153D

 20 19  0  0  1  0  0  0  0  0999 V2000
   -0.8486    0.5447    1.4221 C   0  0  0  0  0  0  0  0  0  0  0  0
    0.5479    0.1417    1.1669 C   0  0  1  0  0  0  0  0  0  0  0  0
    1.1846    0.4736   -0.1202 C   0  0  2  0  0  0  0  0  0  0  0  0
    0.3052    0.8099   -1.1702 C   0  0  0  0  0  0  0  0  0  0  0  0
   -1.0416    1.0285   -0.9516 C   0  0  0  0  0  0  0  0  0  0  0  0
   -1.6049    0.8939    0.3524 C   0  0  0  0  0  0  0  0  0  0  0  0
   -1.2607    0.4828    2.4233 H   0  0  0  0  0  0  0  0  0  0  0  0
    0.4311   -0.9511    0.8995 H   0  0  0  0  0  0  0  0  0  0  0  0
    0.7392    0.9591   -2.1531 H   0  0  0  0  0  0  0  0  0  0  0  0
   -1.7055    1.3295   -1.7555 H   0  0  0  0  0  0  0  0  0  0  0  0
   -3.0364    1.2194    0.5476 N   0  0  0  0  0  0  0  0  0  0  0  0
   -3.4907    1.0862    1.6776 O   0  0  0  0  0  0  0  0  0  0  0  0
   -3.6559    1.5980   -0.4415 O   0  0  0  0  0  0  0  0  0  0  0  0
    1.2927    3.1450    1.8488 N   0  0  0  0  0  0  0  0  0  0  0  0
    1.7916    3.9608    2.4018 N   0  0  0  0  0  0  0  0  0  0  0  0
    2.8009    0.1278   -0.3948 B   0  0  0  0  0  0  0  0  0  0  0  0
    2.8384   -1.2448   -0.1141 F   0  0  0  0  0  0  0  0  0  0  0  0
    3.0396    0.4010   -1.7362 F   0  0  0  0  0  0  0  0  0  0  0  0
    3.5812    0.8822    0.4562 F   0  0  0  0  0  0  0  0  0  0  0  0
    1.3349    0.2306    2.2739 F   0  0  0  0  0  0  0  0  0  0  0  0
  1  7  1  0  0  0  0
  2  8  1  6  0  0  0
  2  1  1  0  0  0  0
  2 20  1  0  0  0  0
  3 16  1  6  0  0  0
  3  2  1  0  0  0  0
  4  5  2  0  0  0  0
  4  3  1  0  0  0  0
  5  6  1  0  0  0  0
  6 11  1  0  0  0  0
  6  1  2  0  0  0  0
  9  4  1  0  0  0  0
 10  5  1  0  0  0  0
 11 12  2  0  0  0  0
 13 11  2  0  0  0  0
 14 15  3  0  0  0  0
 16 17  1  0  0  0  0
 16 19  1  0  0  0  0
 18 16  1  0  0  0  0
M  RAD  1   3   2
M  END
