Coordinates from ORCA-job p-NO2-Ph-N2-BF4-B3LYPG-6-31G_dp-scan-d09-49-n400
 OpenBabel08281821153D

 20 19  0  0  1  0  0  0  0  0999 V2000
   -0.8937    0.5222    1.4174 C   0  0  0  0  0  0  0  0  0  0  0  0
    0.5098    0.1363    1.1732 C   0  0  1  0  0  0  0  0  0  0  0  0
    1.1560    0.4893   -0.1029 C   0  0  2  0  0  0  0  0  0  0  0  0
    0.2842    0.8212   -1.1607 C   0  0  0  0  0  0  0  0  0  0  0  0
   -1.0673    1.0221   -0.9548 C   0  0  0  0  0  0  0  0  0  0  0  0
   -1.6423    0.8722    0.3426 C   0  0  0  0  0  0  0  0  0  0  0  0
   -1.3158    0.4465    2.4135 H   0  0  0  0  0  0  0  0  0  0  0  0
    0.4049   -0.9544    0.8911 H   0  0  0  0  0  0  0  0  0  0  0  0
    0.7271    0.9835   -2.1375 H   0  0  0  0  0  0  0  0  0  0  0  0
   -1.7264    1.3208   -1.7635 H   0  0  0  0  0  0  0  0  0  0  0  0
   -3.0796    1.1795    0.5250 N   0  0  0  0  0  0  0  0  0  0  0  0
   -3.5442    1.0320    1.6489 O   0  0  0  0  0  0  0  0  0  0  0  0
   -3.6931    1.5577   -0.4679 O   0  0  0  0  0  0  0  0  0  0  0  0
    1.4957    3.0992    1.7998 N   0  0  0  0  0  0  0  0  0  0  0  0
    2.1175    3.8629    2.3006 N   0  0  0  0  0  0  0  0  0  0  0  0
    2.7869    0.1988   -0.3494 B   0  0  0  0  0  0  0  0  0  0  0  0
    2.8942   -1.1593   -0.0320 F   0  0  0  0  0  0  0  0  0  0  0  0
    3.0332    0.4519   -1.6935 F   0  0  0  0  0  0  0  0  0  0  0  0
    3.5124    1.0190    0.4933 F   0  0  0  0  0  0  0  0  0  0  0  0
    1.2835    0.2173    2.2896 F   0  0  0  0  0  0  0  0  0  0  0  0
  1  7  1  0  0  0  0
  2  8  1  6  0  0  0
  2  1  1  0  0  0  0
  2 20  1  0  0  0  0
  3 16  1  6  0  0  0
  3  2  1  0  0  0  0
  4  5  2  0  0  0  0
  4  3  1  0  0  0  0
  5  6  1  0  0  0  0
  6 11  1  0  0  0  0
  6  1  2  0  0  0  0
  9  4  1  0  0  0  0
 10  5  1  0  0  0  0
 11 12  2  0  0  0  0
 13 11  2  0  0  0  0
 14 15  3  0  0  0  0
 16 17  1  0  0  0  0
 16 19  1  0  0  0  0
 18 16  1  0  0  0  0
M  RAD  1   3   2
M  END
