Coordinates from ORCA-job p-NO2-Ph-N2-BF4-B3LYPG-6-31G_dp-scan-d09-49-n400
 OpenBabel08281821153D

 20 19  0  0  1  0  0  0  0  0999 V2000
   -0.9769    0.5034    1.4189 C   0  0  0  0  0  0  0  0  0  0  0  0
    0.4461    0.1748    1.2066 C   0  0  1  0  0  0  0  0  0  0  0  0
    1.1102    0.5662   -0.0488 C   0  0  2  0  0  0  0  0  0  0  0  0
    0.2546    0.8700   -1.1261 C   0  0  0  0  0  0  0  0  0  0  0  0
   -1.1093    1.0190   -0.9522 C   0  0  0  0  0  0  0  0  0  0  0  0
   -1.7106    0.8358    0.3278 C   0  0  0  0  0  0  0  0  0  0  0  0
   -1.4204    0.4009    2.4032 H   0  0  0  0  0  0  0  0  0  0  0  0
    0.3839   -0.9146    0.9032 H   0  0  0  0  0  0  0  0  0  0  0  0
    0.7141    1.0584   -2.0905 H   0  0  0  0  0  0  0  0  0  0  0  0
   -1.7584    1.3011   -1.7749 H   0  0  0  0  0  0  0  0  0  0  0  0
   -3.1633    1.0864    0.4758 N   0  0  0  0  0  0  0  0  0  0  0  0
   -3.6501    0.9064    1.5852 O   0  0  0  0  0  0  0  0  0  0  0  0
   -3.7642    1.4539   -0.5285 O   0  0  0  0  0  0  0  0  0  0  0  0
    1.7077    3.1262    1.8402 N   0  0  0  0  0  0  0  0  0  0  0  0
    2.8076    3.0582    1.7353 N   0  0  0  0  0  0  0  0  0  0  0  0
    2.7664    0.3919   -0.2395 B   0  0  0  0  0  0  0  0  0  0  0  0
    3.0022   -0.9259    0.1466 F   0  0  0  0  0  0  0  0  0  0  0  0
    3.0350    0.6185   -1.5823 F   0  0  0  0  0  0  0  0  0  0  0  0
    3.3800    1.3267    0.5906 F   0  0  0  0  0  0  0  0  0  0  0  0
    1.1885    0.2615    2.3423 F   0  0  0  0  0  0  0  0  0  0  0  0
  1  7  1  0  0  0  0
  2  8  1  6  0  0  0
  2  1  1  0  0  0  0
  2 20  1  0  0  0  0
  3 16  1  6  0  0  0
  3  2  1  0  0  0  0
  4  5  2  0  0  0  0
  4  3  1  0  0  0  0
  5  6  1  0  0  0  0
  6 11  1  0  0  0  0
  6  1  2  0  0  0  0
  9  4  1  0  0  0  0
 10  5  1  0  0  0  0
 11 12  2  0  0  0  0
 13 11  2  0  0  0  0
 15 14  3  0  0  0  0
 16 17  1  0  0  0  0
 16 19  1  0  0  0  0
 18 16  1  0  0  0  0
M  RAD  1   3   2
M  END
