Coordinates from ORCA-job p-NO2-Ph-N2-BF4-B3LYPG-6-31G_dp-scan-d09-49-n400
 OpenBabel08281821153D

 20 20  0  0  1  0  0  0  0  0999 V2000
   -1.0030    0.4460    1.4527 C   0  0  0  0  0  0  0  0  0  0  0  0
    0.4523    0.1377    1.2800 C   0  0  1  0  0  0  0  0  0  0  0  0
    1.1643    0.9523    0.2077 C   0  0  1  0  0  0  0  0  0  0  0  0
    0.2993    1.2067   -0.9765 C   0  0  0  0  0  0  0  0  0  0  0  0
   -1.0451    1.1428   -0.8970 C   0  0  0  0  0  0  0  0  0  0  0  0
   -1.6895    0.8631    0.3785 C   0  0  0  0  0  0  0  0  0  0  0  0
   -1.4854    0.2480    2.4029 H   0  0  0  0  0  0  0  0  0  0  0  0
    0.5471   -0.9040    0.9258 H   0  0  0  0  0  0  0  0  0  0  0  0
    0.8003    1.4618   -1.9028 H   0  0  0  0  0  0  0  0  0  0  0  0
   -1.6789    1.3252   -1.7563 H   0  0  0  0  0  0  0  0  0  0  0  0
   -3.1467    1.0731    0.4849 N   0  0  0  0  0  0  0  0  0  0  0  0
   -3.6774    0.8589    1.5702 O   0  0  0  0  0  0  0  0  0  0  0  0
   -3.7265    1.4508   -0.5315 O   0  0  0  0  0  0  0  0  0  0  0  0
    1.5062    2.3530    0.9242 N   0  0  0  0  0  0  0  0  0  0  0  0
    2.5561    2.6824    1.2046 N   0  0  0  0  0  0  0  0  0  0  0  0
    2.7472    0.4404   -0.1315 B   0  0  0  0  0  0  0  0  0  0  0  0
    2.8979   -0.8536    0.2979 F   0  0  0  0  0  0  0  0  0  0  0  0
    3.0251    0.6477   -1.4607 F   0  0  0  0  0  0  0  0  0  0  0  0
    3.5864    1.3428    0.6711 F   0  0  0  0  0  0  0  0  0  0  0  0
    1.1134    0.2436    2.4887 F   0  0  0  0  0  0  0  0  0  0  0  0
  1  7  1  0  0  0  0
  2  8  1  6  0  0  0
  2  1  1  0  0  0  0
  2 20  1  0  0  0  0
  3 16  1  6  0  0  0
  3 14  1  0  0  0  0
  3  2  1  0  0  0  0
  4  5  2  0  0  0  0
  4  3  1  0  0  0  0
  5  6  1  0  0  0  0
  6 11  1  0  0  0  0
  6  1  2  0  0  0  0
  9  4  1  0  0  0  0
 10  5  1  0  0  0  0
 11 12  2  0  0  0  0
 13 11  2  0  0  0  0
 14 15  2  0  0  0  0
 16 17  1  0  0  0  0
 16 19  1  0  0  0  0
 18 16  1  0  0  0  0
M  RAD  1  15   2
M  END
