Coordinates from ORCA-job p-NO2-Ph-N2-BF4-B3LYPG-6-31G_dp-scan-d09-49-n400
 OpenBabel08281821153D

 20 19  0  0  1  0  0  0  0  0999 V2000
   -0.9722    0.5121    1.4146 C   0  0  0  0  0  0  0  0  0  0  0  0
    0.4502    0.1821    1.2002 C   0  0  1  0  0  0  0  0  0  0  0  0
    1.1102    0.5605   -0.0615 C   0  0  2  0  0  0  0  0  0  0  0  0
    0.2502    0.8565   -1.1378 C   0  0  0  0  0  0  0  0  0  0  0  0
   -1.1130    1.0071   -0.9605 C   0  0  0  0  0  0  0  0  0  0  0  0
   -1.7099    0.8345    0.3232 C   0  0  0  0  0  0  0  0  0  0  0  0
   -1.4122    0.4187    2.4014 H   0  0  0  0  0  0  0  0  0  0  0  0
    0.3877   -0.9099    0.9063 H   0  0  0  0  0  0  0  0  0  0  0  0
    0.7065    1.0362   -2.1054 H   0  0  0  0  0  0  0  0  0  0  0  0
   -1.7650    1.2819   -1.7833 H   0  0  0  0  0  0  0  0  0  0  0  0
   -3.1622    1.0854    0.4740 N   0  0  0  0  0  0  0  0  0  0  0  0
   -3.6454    0.9142    1.5864 O   0  0  0  0  0  0  0  0  0  0  0  0
   -3.7668    1.4441   -0.5314 O   0  0  0  0  0  0  0  0  0  0  0  0
    1.7099    3.1566    1.9284 N   0  0  0  0  0  0  0  0  0  0  0  0
    2.8107    3.1389    1.8221 N   0  0  0  0  0  0  0  0  0  0  0  0
    2.7644    0.3741   -0.2599 B   0  0  0  0  0  0  0  0  0  0  0  0
    2.9849   -0.9493    0.1198 F   0  0  0  0  0  0  0  0  0  0  0  0
    3.0270    0.5996   -1.6046 F   0  0  0  0  0  0  0  0  0  0  0  0
    3.3920    1.2961    0.5682 F   0  0  0  0  0  0  0  0  0  0  0  0
    1.1961    0.2794    2.3329 F   0  0  0  0  0  0  0  0  0  0  0  0
  1  7  1  0  0  0  0
  2  8  1  6  0  0  0
  2  1  1  0  0  0  0
  2 20  1  0  0  0  0
  3 16  1  6  0  0  0
  3  2  1  0  0  0  0
  4  5  2  0  0  0  0
  4  3  1  0  0  0  0
  5  6  1  0  0  0  0
  6 11  1  0  0  0  0
  6  1  2  0  0  0  0
  9  4  1  0  0  0  0
 10  5  1  0  0  0  0
 11 12  2  0  0  0  0
 13 11  2  0  0  0  0
 15 14  3  0  0  0  0
 16 17  1  0  0  0  0
 16 19  1  0  0  0  0
 18 16  1  0  0  0  0
M  RAD  1   3   2
M  END
