Coordinates from ORCA-job p-NO2-Ph-N2-BF4-B3LYPG-6-31G_dp-scan-d09-49-n400
 OpenBabel08281821153D

 20 19  0  0  1  0  0  0  0  0999 V2000
   -0.9404    0.5108    1.4195 C   0  0  0  0  0  0  0  0  0  0  0  0
    0.4757    0.1618    1.1939 C   0  0  1  0  0  0  0  0  0  0  0  0
    1.1329    0.5393   -0.0699 C   0  0  2  0  0  0  0  0  0  0  0  0
    0.2695    0.8555   -1.1385 C   0  0  0  0  0  0  0  0  0  0  0  0
   -1.0900    1.0222   -0.9517 C   0  0  0  0  0  0  0  0  0  0  0  0
   -1.6809    0.8492    0.3351 C   0  0  0  0  0  0  0  0  0  0  0  0
   -1.3752    0.4183    2.4086 H   0  0  0  0  0  0  0  0  0  0  0  0
    0.3997   -0.9283    0.8994 H   0  0  0  0  0  0  0  0  0  0  0  0
    0.7225    1.0354   -2.1076 H   0  0  0  0  0  0  0  0  0  0  0  0
   -1.7437    1.3108   -1.7684 H   0  0  0  0  0  0  0  0  0  0  0  0
   -3.1284    1.1190    0.4970 N   0  0  0  0  0  0  0  0  0  0  0  0
   -3.6066    0.9496    1.6120 O   0  0  0  0  0  0  0  0  0  0  0  0
   -3.7352    1.4906   -0.5024 O   0  0  0  0  0  0  0  0  0  0  0  0
    1.5282    3.1230    1.8583 N   0  0  0  0  0  0  0  0  0  0  0  0
    2.5804    3.4465    1.9509 N   0  0  0  0  0  0  0  0  0  0  0  0
    2.7777    0.3019   -0.2901 B   0  0  0  0  0  0  0  0  0  0  0  0
    2.9289   -1.0500    0.0307 F   0  0  0  0  0  0  0  0  0  0  0  0
    3.0358    0.5648   -1.6298 F   0  0  0  0  0  0  0  0  0  0  0  0
    3.4613    1.1487    0.5638 F   0  0  0  0  0  0  0  0  0  0  0  0
    1.2310    0.2494    2.3221 F   0  0  0  0  0  0  0  0  0  0  0  0
  1  7  1  0  0  0  0
  2  8  1  6  0  0  0
  2  1  1  0  0  0  0
  2 20  1  0  0  0  0
  3 16  1  6  0  0  0
  3  2  1  0  0  0  0
  4  5  2  0  0  0  0
  4  3  1  0  0  0  0
  5  6  1  0  0  0  0
  6 11  1  0  0  0  0
  6  1  2  0  0  0  0
  9  4  1  0  0  0  0
 10  5  1  0  0  0  0
 11 12  2  0  0  0  0
 13 11  2  0  0  0  0
 14 15  3  0  0  0  0
 16 17  1  0  0  0  0
 16 19  1  0  0  0  0
 18 16  1  0  0  0  0
M  RAD  1   3   2
M  END
