Coordinates from ORCA-job p-NO2-Ph-N2-BF4-B3LYPG-6-31G_dp-scan-d09-49-n400
 OpenBabel08281821153D

 20 19  0  0  1  0  0  0  0  0999 V2000
   -0.7649    0.6203    1.4073 C   0  0  0  0  0  0  0  0  0  0  0  0
    0.6172    0.1823    1.1347 C   0  0  1  0  0  0  0  0  0  0  0  0
    1.2221    0.4311   -0.1868 C   0  0  2  0  0  0  0  0  0  0  0  0
    0.3187    0.7349   -1.2256 C   0  0  0  0  0  0  0  0  0  0  0  0
   -1.0175    0.9906   -0.9805 C   0  0  0  0  0  0  0  0  0  0  0  0
   -1.5461    0.9286    0.3426 C   0  0  0  0  0  0  0  0  0  0  0  0
   -1.1490    0.6167    2.4213 H   0  0  0  0  0  0  0  0  0  0  0  0
    0.4752   -0.9204    0.9254 H   0  0  0  0  0  0  0  0  0  0  0  0
    0.7263    0.8252   -2.2269 H   0  0  0  0  0  0  0  0  0  0  0  0
   -1.6982    1.2655   -1.7798 H   0  0  0  0  0  0  0  0  0  0  0  0
   -2.9657    1.2888    0.5613 N   0  0  0  0  0  0  0  0  0  0  0  0
   -3.3884    1.2224    1.7094 O   0  0  0  0  0  0  0  0  0  0  0  0
   -3.6066    1.6313   -0.4272 O   0  0  0  0  0  0  0  0  0  0  0  0
    0.9749    3.2672    2.1735 N   0  0  0  0  0  0  0  0  0  0  0  0
    1.3257    4.0998    2.8094 N   0  0  0  0  0  0  0  0  0  0  0  0
    2.8140    0.0085   -0.5007 B   0  0  0  0  0  0  0  0  0  0  0  0
    2.7885   -1.3571   -0.1782 F   0  0  0  0  0  0  0  0  0  0  0  0
    3.0172    0.2278   -1.8577 F   0  0  0  0  0  0  0  0  0  0  0  0
    3.6622    0.7422    0.2984 F   0  0  0  0  0  0  0  0  0  0  0  0
    1.4374    0.3130    2.2130 F   0  0  0  0  0  0  0  0  0  0  0  0
  1  7  1  0  0  0  0
  2  8  1  6  0  0  0
  2  1  1  0  0  0  0
  2 20  1  0  0  0  0
  3 16  1  6  0  0  0
  3  2  1  0  0  0  0
  4  5  2  0  0  0  0
  4  3  1  0  0  0  0
  5  6  1  0  0  0  0
  6 11  1  0  0  0  0
  6  1  2  0  0  0  0
  9  4  1  0  0  0  0
 10  5  1  0  0  0  0
 11 12  2  0  0  0  0
 13 11  2  0  0  0  0
 14 15  3  0  0  0  0
 16 17  1  0  0  0  0
 16 19  1  0  0  0  0
 18 16  1  0  0  0  0
M  RAD  1   3   2
M  END
