Coordinates from ORCA-job p-NO2-Ph-N2-BF4-B3LYPG-6-31G_dp-scan-d09-49-n400
 OpenBabel08281821153D

 20 19  0  0  1  0  0  0  0  0999 V2000
   -0.9868    0.4774    1.4347 C   0  0  0  0  0  0  0  0  0  0  0  0
    0.4394    0.1551    1.2300 C   0  0  1  0  0  0  0  0  0  0  0  0
    1.1160    0.6081    0.0019 C   0  0  2  0  0  0  0  0  0  0  0  0
    0.2753    0.9346   -1.0799 C   0  0  0  0  0  0  0  0  0  0  0  0
   -1.0917    1.0673   -0.9202 C   0  0  0  0  0  0  0  0  0  0  0  0
   -1.7076    0.8444    0.3464 C   0  0  0  0  0  0  0  0  0  0  0  0
   -1.4428    0.3398    2.4089 H   0  0  0  0  0  0  0  0  0  0  0  0
    0.3868   -0.9250    0.8975 H   0  0  0  0  0  0  0  0  0  0  0  0
    0.7447    1.1573   -2.0320 H   0  0  0  0  0  0  0  0  0  0  0  0
   -1.7320    1.3691   -1.7427 H   0  0  0  0  0  0  0  0  0  0  0  0
   -3.1627    1.0870    0.4842 N   0  0  0  0  0  0  0  0  0  0  0  0
   -3.6609    0.8798    1.5837 O   0  0  0  0  0  0  0  0  0  0  0  0
   -3.7538    1.4756   -0.5179 O   0  0  0  0  0  0  0  0  0  0  0  0
    1.6491    2.9619    1.4816 N   0  0  0  0  0  0  0  0  0  0  0  0
    2.7594    2.8713    1.4931 N   0  0  0  0  0  0  0  0  0  0  0  0
    2.7719    0.4329   -0.1785 B   0  0  0  0  0  0  0  0  0  0  0  0
    3.0172   -0.8758    0.2198 F   0  0  0  0  0  0  0  0  0  0  0  0
    3.0585    0.6649   -1.5139 F   0  0  0  0  0  0  0  0  0  0  0  0
    3.3954    1.3813    0.6587 F   0  0  0  0  0  0  0  0  0  0  0  0
    1.1676    0.2116    2.3774 F   0  0  0  0  0  0  0  0  0  0  0  0
  1  7  1  0  0  0  0
  2  8  1  6  0  0  0
  2  1  1  0  0  0  0
  2 20  1  0  0  0  0
  3 16  1  6  0  0  0
  3  2  1  0  0  0  0
  4  5  2  0  0  0  0
  4  3  1  0  0  0  0
  5  6  1  0  0  0  0
  6 11  1  0  0  0  0
  6  1  2  0  0  0  0
  9  4  1  0  0  0  0
 10  5  1  0  0  0  0
 11 12  2  0  0  0  0
 13 11  2  0  0  0  0
 14 15  3  0  0  0  0
 16 17  1  0  0  0  0
 16 19  1  0  0  0  0
 18 16  1  0  0  0  0
M  RAD  1   3   2
M  END
