Coordinates from ORCA-job p-NO2-Ph-N2-BF4-B3LYPG-6-31G_dp-scan-d09-49-n400
 OpenBabel08281821153D

 20 19  0  0  1  0  0  0  0  0999 V2000
   -0.9282    0.4877    1.4226 C   0  0  0  0  0  0  0  0  0  0  0  0
    0.4836    0.1260    1.1904 C   0  0  1  0  0  0  0  0  0  0  0  0
    1.1434    0.5155   -0.0681 C   0  0  2  0  0  0  0  0  0  0  0  0
    0.2828    0.8616   -1.1305 C   0  0  0  0  0  0  0  0  0  0  0  0
   -1.0741    1.0403   -0.9399 C   0  0  0  0  0  0  0  0  0  0  0  0
   -1.6657    0.8527    0.3451 C   0  0  0  0  0  0  0  0  0  0  0  0
   -1.3636    0.3837    2.4104 H   0  0  0  0  0  0  0  0  0  0  0  0
    0.3967   -0.9592    0.8818 H   0  0  0  0  0  0  0  0  0  0  0  0
    0.7373    1.0533   -2.0966 H   0  0  0  0  0  0  0  0  0  0  0  0
   -1.7253    1.3497   -1.7509 H   0  0  0  0  0  0  0  0  0  0  0  0
   -3.1097    1.1365    0.5131 N   0  0  0  0  0  0  0  0  0  0  0  0
   -3.5883    0.9579    1.6266 O   0  0  0  0  0  0  0  0  0  0  0  0
   -3.7139    1.5290   -0.4799 O   0  0  0  0  0  0  0  0  0  0  0  0
    1.5877    3.0883    1.7347 N   0  0  0  0  0  0  0  0  0  0  0  0
    2.3446    3.8347    2.0352 N   0  0  0  0  0  0  0  0  0  0  0  0
    2.7790    0.2387   -0.2999 B   0  0  0  0  0  0  0  0  0  0  0  0
    2.8714   -1.1365   -0.0548 F   0  0  0  0  0  0  0  0  0  0  0  0
    3.0500    0.5624   -1.6240 F   0  0  0  0  0  0  0  0  0  0  0  0
    3.4951    1.0042    0.5987 F   0  0  0  0  0  0  0  0  0  0  0  0
    1.2404    0.1921    2.3191 F   0  0  0  0  0  0  0  0  0  0  0  0
  1  7  1  0  0  0  0
  2  8  1  6  0  0  0
  2  1  1  0  0  0  0
  2 20  1  0  0  0  0
  3 16  1  6  0  0  0
  3  2  1  0  0  0  0
  4  5  2  0  0  0  0
  4  3  1  0  0  0  0
  5  6  1  0  0  0  0
  6 11  1  0  0  0  0
  6  1  2  0  0  0  0
  9  4  1  0  0  0  0
 10  5  1  0  0  0  0
 11 12  2  0  0  0  0
 13 11  2  0  0  0  0
 14 15  3  0  0  0  0
 16 17  1  0  0  0  0
 16 19  1  0  0  0  0
 18 16  1  0  0  0  0
M  RAD  1   3   2
M  END
