Coordinates from ORCA-job p-NO2-Ph-N2-BF4-B3LYPG-6-31G_dp-scan-d09-49-n400
 OpenBabel08281821153D

 20 20  0  0  1  0  0  0  0  0999 V2000
   -0.9359    0.4838    1.4433 C   0  0  0  0  0  0  0  0  0  0  0  0
    0.4972    0.0968    1.2263 C   0  0  1  0  0  0  0  0  0  0  0  0
    1.2040    0.9268    0.1310 C   0  0  1  0  0  0  0  0  0  0  0  0
    0.2771    1.1094   -1.0637 C   0  0  0  0  0  0  0  0  0  0  0  0
   -1.0579    1.0891   -0.9329 C   0  0  0  0  0  0  0  0  0  0  0  0
   -1.6523    0.8794    0.3837 C   0  0  0  0  0  0  0  0  0  0  0  0
   -1.3820    0.3514    2.4219 H   0  0  0  0  0  0  0  0  0  0  0  0
    0.5231   -0.9608    0.9202 H   0  0  0  0  0  0  0  0  0  0  0  0
    0.7346    1.3453   -2.0190 H   0  0  0  0  0  0  0  0  0  0  0  0
   -1.7206    1.2735   -1.7688 H   0  0  0  0  0  0  0  0  0  0  0  0
   -3.0931    1.1464    0.5469 N   0  0  0  0  0  0  0  0  0  0  0  0
   -3.5835    1.0000    1.6631 O   0  0  0  0  0  0  0  0  0  0  0  0
   -3.7096    1.4952   -0.4591 O   0  0  0  0  0  0  0  0  0  0  0  0
    1.4078    2.3216    0.6996 N   0  0  0  0  0  0  0  0  0  0  0  0
    2.4670    2.5888    1.2674 N   0  0  0  0  0  0  0  0  0  0  0  0
    2.5555    0.2371   -0.3420 B   0  0  0  0  0  0  0  0  0  0  0  0
    2.9194   -0.9579    0.0977 F   0  0  0  0  0  0  0  0  0  0  0  0
    3.2745    0.7970   -1.3044 F   0  0  0  0  0  0  0  0  0  0  0  0
    3.3113    1.6940    1.3070 F   0  0  0  0  0  0  0  0  0  0  0  0
    1.2064    0.2019    2.4147 F   0  0  0  0  0  0  0  0  0  0  0  0
  1  7  1  0  0  0  0
  2  8  1  6  0  0  0
  2  1  1  0  0  0  0
  2 20  1  0  0  0  0
  3 16  1  6  0  0  0
  3 14  1  0  0  0  0
  3  2  1  0  0  0  0
  4  5  2  0  0  0  0
  4  3  1  0  0  0  0
  5  6  1  0  0  0  0
  6 11  1  0  0  0  0
  6  1  2  0  0  0  0
  9  4  1  0  0  0  0
 10  5  1  0  0  0  0
 11 12  2  0  0  0  0
 13 11  2  0  0  0  0
 14 15  2  0  0  0  0
 15 19  1  0  0  0  0
 16 17  1  0  0  0  0
 18 16  1  0  0  0  0
M  END
