Coordinates from ORCA-job p-NO2-Ph-N2-BF4-B3LYPG-6-31G_dp-scan-d09-49-n400
 OpenBabel08281821153D

 20 19  0  0  1  0  0  0  0  0999 V2000
   -0.7553    0.6544    1.3899 C   0  0  0  0  0  0  0  0  0  0  0  0
    0.6241    0.2071    1.1179 C   0  0  1  0  0  0  0  0  0  0  0  0
    1.2173    0.4166   -0.2154 C   0  0  2  0  0  0  0  0  0  0  0  0
    0.3050    0.6883   -1.2551 C   0  0  0  0  0  0  0  0  0  0  0  0
   -1.0290    0.9522   -1.0060 C   0  0  0  0  0  0  0  0  0  0  0  0
   -1.5456    0.9314    0.3233 C   0  0  0  0  0  0  0  0  0  0  0  0
   -1.1298    0.6823    2.4069 H   0  0  0  0  0  0  0  0  0  0  0  0
    0.4775   -0.9007    0.9398 H   0  0  0  0  0  0  0  0  0  0  0  0
    0.7039    0.7485   -2.2622 H   0  0  0  0  0  0  0  0  0  0  0  0
   -1.7169    1.2029   -1.8071 H   0  0  0  0  0  0  0  0  0  0  0  0
   -2.9628    1.2995    0.5437 N   0  0  0  0  0  0  0  0  0  0  0  0
   -3.3758    1.2656    1.6968 O   0  0  0  0  0  0  0  0  0  0  0  0
   -3.6130    1.6106   -0.4490 O   0  0  0  0  0  0  0  0  0  0  0  0
    0.9561    3.2855    2.3565 N   0  0  0  0  0  0  0  0  0  0  0  0
    1.3526    4.0991    2.9902 N   0  0  0  0  0  0  0  0  0  0  0  0
    2.8118    0.0023   -0.5243 B   0  0  0  0  0  0  0  0  0  0  0  0
    2.8157   -1.3489   -0.1490 F   0  0  0  0  0  0  0  0  0  0  0  0
    3.0040    0.1731   -1.8899 F   0  0  0  0  0  0  0  0  0  0  0  0
    3.6488    0.7846    0.2415 F   0  0  0  0  0  0  0  0  0  0  0  0
    1.4543    0.3644    2.1845 F   0  0  0  0  0  0  0  0  0  0  0  0
  1  7  1  0  0  0  0
  2  8  1  6  0  0  0
  2  1  1  0  0  0  0
  2 20  1  0  0  0  0
  3 16  1  6  0  0  0
  3  2  1  0  0  0  0
  4  5  2  0  0  0  0
  4  3  1  0  0  0  0
  5  6  1  0  0  0  0
  6 11  1  0  0  0  0
  6  1  2  0  0  0  0
  9  4  1  0  0  0  0
 10  5  1  0  0  0  0
 11 12  2  0  0  0  0
 13 11  2  0  0  0  0
 14 15  3  0  0  0  0
 16 17  1  0  0  0  0
 16 19  1  0  0  0  0
 18 16  1  0  0  0  0
M  RAD  1   3   2
M  END
