Coordinates from ORCA-job p-NO2-Ph-N2-BF4-B3LYPG-6-31G_dp-scan-d09-49-n400
 OpenBabel08281821153D

 20 20  0  0  1  0  0  0  0  0999 V2000
   -1.0023    0.4437    1.4512 C   0  0  0  0  0  0  0  0  0  0  0  0
    0.4527    0.1321    1.2777 C   0  0  1  0  0  0  0  0  0  0  0  0
    1.1654    0.9541    0.2090 C   0  0  1  0  0  0  0  0  0  0  0  0
    0.2984    1.2069   -0.9781 C   0  0  0  0  0  0  0  0  0  0  0  0
   -1.0451    1.1444   -0.8980 C   0  0  0  0  0  0  0  0  0  0  0  0
   -1.6885    0.8645    0.3787 C   0  0  0  0  0  0  0  0  0  0  0  0
   -1.4844    0.2452    2.4014 H   0  0  0  0  0  0  0  0  0  0  0  0
    0.5467   -0.9095    0.9241 H   0  0  0  0  0  0  0  0  0  0  0  0
    0.7995    1.4603   -1.9049 H   0  0  0  0  0  0  0  0  0  0  0  0
   -1.6793    1.3270   -1.7569 H   0  0  0  0  0  0  0  0  0  0  0  0
   -3.1450    1.0779    0.4872 N   0  0  0  0  0  0  0  0  0  0  0  0
   -3.6754    0.8633    1.5727 O   0  0  0  0  0  0  0  0  0  0  0  0
   -3.7252    1.4586   -0.5278 O   0  0  0  0  0  0  0  0  0  0  0  0
    1.4990    2.3431    0.9187 N   0  0  0  0  0  0  0  0  0  0  0  0
    2.5536    2.6708    1.1961 N   0  0  0  0  0  0  0  0  0  0  0  0
    2.7403    0.4389   -0.1318 B   0  0  0  0  0  0  0  0  0  0  0  0
    2.9114   -0.8462    0.3103 F   0  0  0  0  0  0  0  0  0  0  0  0
    3.0295    0.6441   -1.4574 F   0  0  0  0  0  0  0  0  0  0  0  0
    3.5780    1.3621    0.6737 F   0  0  0  0  0  0  0  0  0  0  0  0
    1.1138    0.2374    2.4871 F   0  0  0  0  0  0  0  0  0  0  0  0
  1  7  1  0  0  0  0
  2  8  1  6  0  0  0
  2  1  1  0  0  0  0
  2 20  1  0  0  0  0
  3 16  1  6  0  0  0
  3 14  1  0  0  0  0
  3  2  1  0  0  0  0
  4  5  2  0  0  0  0
  4  3  1  0  0  0  0
  5  6  1  0  0  0  0
  6 11  1  0  0  0  0
  6  1  2  0  0  0  0
  9  4  1  0  0  0  0
 10  5  1  0  0  0  0
 11 12  2  0  0  0  0
 13 11  2  0  0  0  0
 14 15  2  0  0  0  0
 16 17  1  0  0  0  0
 16 19  1  0  0  0  0
 18 16  1  0  0  0  0
M  RAD  1  15   2
M  END
