Coordinates from ORCA-job p-NO2-Ph-N2-BF4-B3LYPG-6-31G_dp-scan-d09-49-n400
 OpenBabel08281821153D

 20 19  0  0  1  0  0  0  0  0999 V2000
   -0.9394    0.4979    1.4201 C   0  0  0  0  0  0  0  0  0  0  0  0
    0.4741    0.1397    1.1912 C   0  0  1  0  0  0  0  0  0  0  0  0
    1.1335    0.5254   -0.0687 C   0  0  2  0  0  0  0  0  0  0  0  0
    0.2726    0.8564   -1.1349 C   0  0  0  0  0  0  0  0  0  0  0  0
   -1.0856    1.0307   -0.9467 C   0  0  0  0  0  0  0  0  0  0  0  0
   -1.6774    0.8515    0.3391 C   0  0  0  0  0  0  0  0  0  0  0  0
   -1.3749    0.3995    2.4084 H   0  0  0  0  0  0  0  0  0  0  0  0
    0.3890   -0.9473    0.8876 H   0  0  0  0  0  0  0  0  0  0  0  0
    0.7270    1.0423   -2.1022 H   0  0  0  0  0  0  0  0  0  0  0  0
   -1.7375    1.3305   -1.7608 H   0  0  0  0  0  0  0  0  0  0  0  0
   -3.1226    1.1314    0.5038 N   0  0  0  0  0  0  0  0  0  0  0  0
   -3.6016    0.9578    1.6179 O   0  0  0  0  0  0  0  0  0  0  0  0
   -3.7271    1.5153   -0.4924 O   0  0  0  0  0  0  0  0  0  0  0  0
    1.5369    3.0843    1.8081 N   0  0  0  0  0  0  0  0  0  0  0  0
    2.5332    3.5422    1.9412 N   0  0  0  0  0  0  0  0  0  0  0  0
    2.7792    0.2945   -0.2845 B   0  0  0  0  0  0  0  0  0  0  0  0
    2.9435   -1.0549    0.0370 F   0  0  0  0  0  0  0  0  0  0  0  0
    3.0404    0.5602   -1.6234 F   0  0  0  0  0  0  0  0  0  0  0  0
    3.4496    1.1495    0.5721 F   0  0  0  0  0  0  0  0  0  0  0  0
    1.2300    0.2118    2.3199 F   0  0  0  0  0  0  0  0  0  0  0  0
  1  7  1  0  0  0  0
  2  8  1  6  0  0  0
  2  1  1  0  0  0  0
  2 20  1  0  0  0  0
  3 16  1  6  0  0  0
  3  2  1  0  0  0  0
  4  5  2  0  0  0  0
  4  3  1  0  0  0  0
  5  6  1  0  0  0  0
  6 11  1  0  0  0  0
  6  1  2  0  0  0  0
  9  4  1  0  0  0  0
 10  5  1  0  0  0  0
 11 12  2  0  0  0  0
 13 11  2  0  0  0  0
 14 15  3  0  0  0  0
 16 17  1  0  0  0  0
 16 19  1  0  0  0  0
 18 16  1  0  0  0  0
M  RAD  1   3   2
M  END
