Coordinates from ORCA-job p-NO2-Ph-N2-BF4-B3LYPG-6-31G_dp-scan-d09-49-n400
 OpenBabel08281821153D

 20 19  0  0  1  0  0  0  0  0999 V2000
   -0.7758    0.6001    1.4153 C   0  0  0  0  0  0  0  0  0  0  0  0
    0.6095    0.1714    1.1447 C   0  0  1  0  0  0  0  0  0  0  0  0
    1.2222    0.4427   -0.1689 C   0  0  2  0  0  0  0  0  0  0  0  0
    0.3246    0.7630   -1.2080 C   0  0  0  0  0  0  0  0  0  0  0  0
   -1.0138    1.0108   -0.9674 C   0  0  0  0  0  0  0  0  0  0  0  0
   -1.5511    0.9238    0.3510 C   0  0  0  0  0  0  0  0  0  0  0  0
   -1.1665    0.5779    2.4266 H   0  0  0  0  0  0  0  0  0  0  0  0
    0.4747   -0.9287    0.9182 H   0  0  0  0  0  0  0  0  0  0  0  0
    0.7382    0.8712   -2.2051 H   0  0  0  0  0  0  0  0  0  0  0  0
   -1.6900    1.2975   -1.7662 H   0  0  0  0  0  0  0  0  0  0  0  0
   -2.9734    1.2751    0.5660 N   0  0  0  0  0  0  0  0  0  0  0  0
   -3.4049    1.1837    1.7091 O   0  0  0  0  0  0  0  0  0  0  0  0
   -3.6091    1.6315   -0.4210 O   0  0  0  0  0  0  0  0  0  0  0  0
    1.0006    3.2612    2.0844 N   0  0  0  0  0  0  0  0  0  0  0  0
    1.3605    4.1050    2.7003 N   0  0  0  0  0  0  0  0  0  0  0  0
    2.8132    0.0159   -0.4840 B   0  0  0  0  0  0  0  0  0  0  0  0
    2.7692   -1.3573   -0.1954 F   0  0  0  0  0  0  0  0  0  0  0  0
    3.0266    0.2652   -1.8341 F   0  0  0  0  0  0  0  0  0  0  0  0
    3.6659    0.7182    0.3374 F   0  0  0  0  0  0  0  0  0  0  0  0
    1.4222    0.2906    2.2303 F   0  0  0  0  0  0  0  0  0  0  0  0
  1  7  1  0  0  0  0
  2  8  1  6  0  0  0
  2  1  1  0  0  0  0
  2 20  1  0  0  0  0
  3 16  1  6  0  0  0
  3  2  1  0  0  0  0
  4  5  2  0  0  0  0
  4  3  1  0  0  0  0
  5  6  1  0  0  0  0
  6 11  1  0  0  0  0
  6  1  2  0  0  0  0
  9  4  1  0  0  0  0
 10  5  1  0  0  0  0
 11 12  2  0  0  0  0
 13 11  2  0  0  0  0
 14 15  3  0  0  0  0
 16 17  1  0  0  0  0
 16 19  1  0  0  0  0
 18 16  1  0  0  0  0
M  RAD  1   3   2
M  END
