Coordinates from ORCA-job p-NO2-Ph-N2-BF4-B3LYPG-6-31G_dp-scan-d09-49-n400
 OpenBabel08281821153D

 20 19  0  0  1  0  0  0  0  0999 V2000
   -0.8074    0.5734    1.4201 C   0  0  0  0  0  0  0  0  0  0  0  0
    0.5816    0.1518    1.1548 C   0  0  1  0  0  0  0  0  0  0  0  0
    1.2059    0.4529   -0.1462 C   0  0  2  0  0  0  0  0  0  0  0  0
    0.3172    0.7842   -1.1897 C   0  0  0  0  0  0  0  0  0  0  0  0
   -1.0245    1.0221   -0.9580 C   0  0  0  0  0  0  0  0  0  0  0  0
   -1.5733    0.9133    0.3541 C   0  0  0  0  0  0  0  0  0  0  0  0
   -1.2077    0.5326    2.4271 H   0  0  0  0  0  0  0  0  0  0  0  0
    0.4498   -0.9442    0.9083 H   0  0  0  0  0  0  0  0  0  0  0  0
    0.7404    0.9119   -2.1804 H   0  0  0  0  0  0  0  0  0  0  0  0
   -1.6945    1.3187   -1.7585 H   0  0  0  0  0  0  0  0  0  0  0  0
   -2.9985    1.2580    0.5616 N   0  0  0  0  0  0  0  0  0  0  0  0
   -3.4401    1.1478    1.6992 O   0  0  0  0  0  0  0  0  0  0  0  0
   -3.6261    1.6280   -0.4255 O   0  0  0  0  0  0  0  0  0  0  0  0
    1.1187    3.1913    1.9620 N   0  0  0  0  0  0  0  0  0  0  0  0
    1.5347    4.0301    2.5488 N   0  0  0  0  0  0  0  0  0  0  0  0
    2.8105    0.0685   -0.4423 B   0  0  0  0  0  0  0  0  0  0  0  0
    2.8142   -1.3034   -0.1513 F   0  0  0  0  0  0  0  0  0  0  0  0
    3.0328    0.3239   -1.7901 F   0  0  0  0  0  0  0  0  0  0  0  0
    3.6260    0.8056    0.3885 F   0  0  0  0  0  0  0  0  0  0  0  0
    1.3833    0.2523    2.2503 F   0  0  0  0  0  0  0  0  0  0  0  0
  1  7  1  0  0  0  0
  2  8  1  6  0  0  0
  2  1  1  0  0  0  0
  2 20  1  0  0  0  0
  3 16  1  6  0  0  0
  3  2  1  0  0  0  0
  4  5  2  0  0  0  0
  4  3  1  0  0  0  0
  5  6  1  0  0  0  0
  6 11  1  0  0  0  0
  6  1  2  0  0  0  0
  9  4  1  0  0  0  0
 10  5  1  0  0  0  0
 11 12  2  0  0  0  0
 13 11  2  0  0  0  0
 14 15  3  0  0  0  0
 16 17  1  0  0  0  0
 16 19  1  0  0  0  0
 18 16  1  0  0  0  0
M  RAD  1   3   2
M  END
