Coordinates from ORCA-job p-NO2-Ph-N2-BF4-B3LYPG-6-31G_dp-scan-d09-49-n400
 OpenBabel08281821153D

 20 19  0  0  1  0  0  0  0  0999 V2000
   -0.9819    0.4891    1.4268 C   0  0  0  0  0  0  0  0  0  0  0  0
    0.4422    0.1634    1.2178 C   0  0  1  0  0  0  0  0  0  0  0  0
    1.1126    0.5805   -0.0256 C   0  0  2  0  0  0  0  0  0  0  0  0
    0.2644    0.8973   -1.1043 C   0  0  0  0  0  0  0  0  0  0  0  0
   -1.1009    1.0421   -0.9364 C   0  0  0  0  0  0  0  0  0  0  0  0
   -1.7092    0.8395    0.3370 C   0  0  0  0  0  0  0  0  0  0  0  0
   -1.4315    0.3695    2.4064 H   0  0  0  0  0  0  0  0  0  0  0  0
    0.3823   -0.9212    0.8973 H   0  0  0  0  0  0  0  0  0  0  0  0
    0.7290    1.1019   -2.0629 H   0  0  0  0  0  0  0  0  0  0  0  0
   -1.7451    1.3366   -1.7585 H   0  0  0  0  0  0  0  0  0  0  0  0
   -3.1628    1.0880    0.4806 N   0  0  0  0  0  0  0  0  0  0  0  0
   -3.6553    0.8934    1.5850 O   0  0  0  0  0  0  0  0  0  0  0  0
   -3.7578    1.4715   -0.5212 O   0  0  0  0  0  0  0  0  0  0  0  0
    1.6814    3.0607    1.6625 N   0  0  0  0  0  0  0  0  0  0  0  0
    2.7846    2.9516    1.6130 N   0  0  0  0  0  0  0  0  0  0  0  0
    2.7700    0.4147   -0.2080 B   0  0  0  0  0  0  0  0  0  0  0  0
    3.0184   -0.8968    0.1861 F   0  0  0  0  0  0  0  0  0  0  0  0
    3.0479    0.6436   -1.5473 F   0  0  0  0  0  0  0  0  0  0  0  0
    3.3767    1.3620    0.6257 F   0  0  0  0  0  0  0  0  0  0  0  0
    1.1780    0.2313    2.3590 F   0  0  0  0  0  0  0  0  0  0  0  0
  1  7  1  0  0  0  0
  2  8  1  6  0  0  0
  2  1  1  0  0  0  0
  2 20  1  0  0  0  0
  3 16  1  6  0  0  0
  3  2  1  0  0  0  0
  4  5  2  0  0  0  0
  4  3  1  0  0  0  0
  5  6  1  0  0  0  0
  6 11  1  0  0  0  0
  6  1  2  0  0  0  0
  9  4  1  0  0  0  0
 10  5  1  0  0  0  0
 11 12  2  0  0  0  0
 13 11  2  0  0  0  0
 15 14  3  0  0  0  0
 16 17  1  0  0  0  0
 16 19  1  0  0  0  0
 18 16  1  0  0  0  0
M  RAD  1   3   2
M  END
