Coordinates from ORCA-job p-NO2-Ph-N2-BF4-B3LYPG-6-31G_dp-scan-d09-49-n400
 OpenBabel08281821153D

 20 20  0  0  1  0  0  0  0  0999 V2000
   -0.9134    0.5071    1.4500 C   0  0  0  0  0  0  0  0  0  0  0  0
    0.5196    0.1325    1.2349 C   0  0  1  0  0  0  0  0  0  0  0  0
    1.2195    0.9385    0.1179 C   0  0  1  0  0  0  0  0  0  0  0  0
    0.2825    1.1139   -1.0699 C   0  0  0  0  0  0  0  0  0  0  0  0
   -1.0525    1.0766   -0.9363 C   0  0  0  0  0  0  0  0  0  0  0  0
   -1.6382    0.8672    0.3828 C   0  0  0  0  0  0  0  0  0  0  0  0
   -1.3564    0.3929    2.4322 H   0  0  0  0  0  0  0  0  0  0  0  0
    0.5597   -0.9394    0.9890 H   0  0  0  0  0  0  0  0  0  0  0  0
    0.7293    1.3829   -2.0221 H   0  0  0  0  0  0  0  0  0  0  0  0
   -1.7189    1.2697   -1.7667 H   0  0  0  0  0  0  0  0  0  0  0  0
   -3.0834    1.1092    0.5474 N   0  0  0  0  0  0  0  0  0  0  0  0
   -3.5678    0.9748    1.6684 O   0  0  0  0  0  0  0  0  0  0  0  0
   -3.7128    1.4252   -0.4616 O   0  0  0  0  0  0  0  0  0  0  0  0
    1.4679    2.3685    0.6123 N   0  0  0  0  0  0  0  0  0  0  0  0
    2.5346    2.5188    1.3047 N   0  0  0  0  0  0  0  0  0  0  0  0
    2.5002    0.1763   -0.4128 B   0  0  0  0  0  0  0  0  0  0  0  0
    2.7195   -1.1060   -0.1529 F   0  0  0  0  0  0  0  0  0  0  0  0
    3.3835    0.8038   -1.1787 F   0  0  0  0  0  0  0  0  0  0  0  0
    3.1281    1.8092    1.4717 F   0  0  0  0  0  0  0  0  0  0  0  0
    1.2419    0.2970    2.4226 F   0  0  0  0  0  0  0  0  0  0  0  0
  1  7  1  0  0  0  0
  2  8  1  6  0  0  0
  2  1  1  0  0  0  0
  2 20  1  0  0  0  0
  3 16  1  6  0  0  0
  3 14  1  0  0  0  0
  3  2  1  0  0  0  0
  4  5  2  0  0  0  0
  4  3  1  0  0  0  0
  5  6  1  0  0  0  0
  6 11  1  0  0  0  0
  6  1  2  0  0  0  0
  9  4  1  0  0  0  0
 10  5  1  0  0  0  0
 11 12  2  0  0  0  0
 13 11  2  0  0  0  0
 14 15  1  0  0  0  0
 15 19  1  0  0  0  0
 16 17  1  0  0  0  0
 18 16  1  0  0  0  0
M  RAD  2  14   2  15   2
M  END
