Coordinates from ORCA-job p-NO2-Ph-N2-BF4-B3LYPG-6-31G_dp-scan-d09-49-n400
 OpenBabel08281821153D

 20 20  0  0  1  0  0  0  0  0999 V2000
   -0.9391    0.4812    1.4428 C   0  0  0  0  0  0  0  0  0  0  0  0
    0.4945    0.0947    1.2265 C   0  0  1  0  0  0  0  0  0  0  0  0
    1.2019    0.9269    0.1334 C   0  0  1  0  0  0  0  0  0  0  0  0
    0.2766    1.1109   -1.0620 C   0  0  0  0  0  0  0  0  0  0  0  0
   -1.0585    1.0910   -0.9322 C   0  0  0  0  0  0  0  0  0  0  0  0
   -1.6543    0.8799    0.3836 C   0  0  0  0  0  0  0  0  0  0  0  0
   -1.3861    0.3464    2.4207 H   0  0  0  0  0  0  0  0  0  0  0  0
    0.5209   -0.9617    0.9157 H   0  0  0  0  0  0  0  0  0  0  0  0
    0.7357    1.3449   -2.0169 H   0  0  0  0  0  0  0  0  0  0  0  0
   -1.7205    1.2748   -1.7688 H   0  0  0  0  0  0  0  0  0  0  0  0
   -3.0950    1.1478    0.5460 N   0  0  0  0  0  0  0  0  0  0  0  0
   -3.5865    0.9992    1.6614 O   0  0  0  0  0  0  0  0  0  0  0  0
   -3.7100    1.4996   -0.4599 O   0  0  0  0  0  0  0  0  0  0  0  0
    1.4048    2.3173    0.7085 N   0  0  0  0  0  0  0  0  0  0  0  0
    2.4642    2.5937    1.2622 N   0  0  0  0  0  0  0  0  0  0  0  0
    2.5616    0.2453   -0.3321 B   0  0  0  0  0  0  0  0  0  0  0  0
    2.9332   -0.9431    0.1190 F   0  0  0  0  0  0  0  0  0  0  0  0
    3.2655    0.7945   -1.3119 F   0  0  0  0  0  0  0  0  0  0  0  0
    3.3319    1.6791    1.2818 F   0  0  0  0  0  0  0  0  0  0  0  0
    1.2022    0.1963    2.4152 F   0  0  0  0  0  0  0  0  0  0  0  0
  1  7  1  0  0  0  0
  2  8  1  6  0  0  0
  2  1  1  0  0  0  0
  2 20  1  0  0  0  0
  3 16  1  6  0  0  0
  3 14  1  0  0  0  0
  3  2  1  0  0  0  0
  4  5  2  0  0  0  0
  4  3  1  0  0  0  0
  5  6  1  0  0  0  0
  6 11  1  0  0  0  0
  6  1  2  0  0  0  0
  9  4  1  0  0  0  0
 10  5  1  0  0  0  0
 11 12  2  0  0  0  0
 13 11  2  0  0  0  0
 14 15  2  0  0  0  0
 15 19  1  0  0  0  0
 16 17  1  0  0  0  0
 18 16  1  0  0  0  0
M  END
