Coordinates from ORCA-job p-NO2-Ph-N2-BF4-B3LYPG-6-31G_dp-scan-d09-49-n400
 OpenBabel08281821153D

 20 20  0  0  1  0  0  0  0  0999 V2000
   -0.9674    0.4509    1.4404 C   0  0  0  0  0  0  0  0  0  0  0  0
    0.4707    0.0723    1.2343 C   0  0  1  0  0  0  0  0  0  0  0  0
    1.1886    0.9254    0.1681 C   0  0  1  0  0  0  0  0  0  0  0  0
    0.2834    1.1364   -1.0338 C   0  0  0  0  0  0  0  0  0  0  0  0
   -1.0535    1.1179   -0.9206 C   0  0  0  0  0  0  0  0  0  0  0  0
   -1.6671    0.8812    0.3832 C   0  0  0  0  0  0  0  0  0  0  0  0
   -1.4282    0.2888    2.4078 H   0  0  0  0  0  0  0  0  0  0  0  0
    0.5070   -0.9749    0.8941 H   0  0  0  0  0  0  0  0  0  0  0  0
    0.7601    1.3701   -1.9795 H   0  0  0  0  0  0  0  0  0  0  0  0
   -1.7047    1.3093   -1.7640 H   0  0  0  0  0  0  0  0  0  0  0  0
   -3.1093    1.1505    0.5326 N   0  0  0  0  0  0  0  0  0  0  0  0
   -3.6164    0.9736    1.6365 O   0  0  0  0  0  0  0  0  0  0  0  0
   -3.7076    1.5334   -0.4718 O   0  0  0  0  0  0  0  0  0  0  0  0
    1.3906    2.2888    0.7964 N   0  0  0  0  0  0  0  0  0  0  0  0
    2.4725    2.6228    1.2039 N   0  0  0  0  0  0  0  0  0  0  0  0
    2.6063    0.3012   -0.2473 B   0  0  0  0  0  0  0  0  0  0  0  0
    3.0174   -0.8455    0.2834 F   0  0  0  0  0  0  0  0  0  0  0  0
    3.1813    0.7211   -1.3730 F   0  0  0  0  0  0  0  0  0  0  0  0
    3.4572    1.6449    1.0106 F   0  0  0  0  0  0  0  0  0  0  0  0
    1.1623    0.1506    2.4316 F   0  0  0  0  0  0  0  0  0  0  0  0
  1  7  1  0  0  0  0
  2  8  1  6  0  0  0
  2  1  1  0  0  0  0
  2 20  1  0  0  0  0
  3 16  1  6  0  0  0
  3 14  1  0  0  0  0
  3  2  1  0  0  0  0
  4  5  2  0  0  0  0
  4  3  1  0  0  0  0
  5  6  1  0  0  0  0
  6 11  1  0  0  0  0
  6  1  2  0  0  0  0
  9  4  1  0  0  0  0
 10  5  1  0  0  0  0
 11 12  2  0  0  0  0
 13 11  2  0  0  0  0
 14 15  1  0  0  0  0
 16 17  1  0  0  0  0
 18 16  1  0  0  0  0
 19 15  1  0  0  0  0
M  RAD  2  14   2  15   2
M  END
