Coordinates from ORCA-job p-NO2-Ph-N2-BF4-B3LYPG-6-31G_dp-scan-d09-49-n400
 OpenBabel08281821153D

 20 19  0  0  1  0  0  0  0  0999 V2000
   -0.9787    0.4990    1.4218 C   0  0  0  0  0  0  0  0  0  0  0  0
    0.4447    0.1713    1.2107 C   0  0  1  0  0  0  0  0  0  0  0  0
    1.1109    0.5708   -0.0410 C   0  0  2  0  0  0  0  0  0  0  0  0
    0.2579    0.8789   -1.1187 C   0  0  0  0  0  0  0  0  0  0  0  0
   -1.1065    1.0269   -0.9468 C   0  0  0  0  0  0  0  0  0  0  0  0
   -1.7102    0.8373    0.3310 C   0  0  0  0  0  0  0  0  0  0  0  0
   -1.4243    0.3909    2.4046 H   0  0  0  0  0  0  0  0  0  0  0  0
    0.3829   -0.9165    0.9015 H   0  0  0  0  0  0  0  0  0  0  0  0
    0.7191    1.0726   -2.0812 H   0  0  0  0  0  0  0  0  0  0  0  0
   -1.7539    1.3133   -1.7693 H   0  0  0  0  0  0  0  0  0  0  0  0
   -3.1632    1.0873    0.4775 N   0  0  0  0  0  0  0  0  0  0  0  0
   -3.6520    0.9018    1.5852 O   0  0  0  0  0  0  0  0  0  0  0  0
   -3.7621    1.4599   -0.5260 O   0  0  0  0  0  0  0  0  0  0  0  0
    1.6994    3.1038    1.7788 N   0  0  0  0  0  0  0  0  0  0  0  0
    2.7998    3.0113    1.6892 N   0  0  0  0  0  0  0  0  0  0  0  0
    2.7679    0.4013   -0.2279 B   0  0  0  0  0  0  0  0  0  0  0  0
    3.0104   -0.9138    0.1609 F   0  0  0  0  0  0  0  0  0  0  0  0
    3.0401    0.6293   -1.5694 F   0  0  0  0  0  0  0  0  0  0  0  0
    3.3761    1.3417    0.6040 F   0  0  0  0  0  0  0  0  0  0  0  0
    1.1849    0.2517    2.3482 F   0  0  0  0  0  0  0  0  0  0  0  0
  1  7  1  0  0  0  0
  2  8  1  6  0  0  0
  2  1  1  0  0  0  0
  2 20  1  0  0  0  0
  3 16  1  6  0  0  0
  3  2  1  0  0  0  0
  4  5  2  0  0  0  0
  4  3  1  0  0  0  0
  5  6  1  0  0  0  0
  6 11  1  0  0  0  0
  6  1  2  0  0  0  0
  9  4  1  0  0  0  0
 10  5  1  0  0  0  0
 11 12  2  0  0  0  0
 13 11  2  0  0  0  0
 15 14  3  0  0  0  0
 16 17  1  0  0  0  0
 16 19  1  0  0  0  0
 18 16  1  0  0  0  0
M  RAD  1   3   2
M  END
