Coordinates from ORCA-job p-NO2-Ph-N2-BF4-B3LYPG-6-31G_dp-scan-d09-49-n400
 OpenBabel08281821153D

 20 19  0  0  1  0  0  0  0  0999 V2000
   -0.9741    0.5101    1.4157 C   0  0  0  0  0  0  0  0  0  0  0  0
    0.4487    0.1814    1.2024 C   0  0  1  0  0  0  0  0  0  0  0  0
    1.1097    0.5628   -0.0579 C   0  0  2  0  0  0  0  0  0  0  0  0
    0.2509    0.8596   -1.1348 C   0  0  0  0  0  0  0  0  0  0  0  0
   -1.1126    1.0088   -0.9587 C   0  0  0  0  0  0  0  0  0  0  0  0
   -1.7108    0.8338    0.3240 C   0  0  0  0  0  0  0  0  0  0  0  0
   -1.4152    0.4147    2.4019 H   0  0  0  0  0  0  0  0  0  0  0  0
    0.3869   -0.9103    0.9071 H   0  0  0  0  0  0  0  0  0  0  0  0
    0.7080    1.0414   -2.1016 H   0  0  0  0  0  0  0  0  0  0  0  0
   -1.7640    1.2846   -1.7818 H   0  0  0  0  0  0  0  0  0  0  0  0
   -3.1635    1.0837    0.4736 N   0  0  0  0  0  0  0  0  0  0  0  0
   -3.6469    0.9143    1.5862 O   0  0  0  0  0  0  0  0  0  0  0  0
   -3.7664    1.4472   -0.5309 O   0  0  0  0  0  0  0  0  0  0  0  0
    1.7132    3.1442    1.9054 N   0  0  0  0  0  0  0  0  0  0  0  0
    2.8129    3.1045    1.7923 N   0  0  0  0  0  0  0  0  0  0  0  0
    2.7647    0.3821   -0.2532 B   0  0  0  0  0  0  0  0  0  0  0  0
    2.9914   -0.9398    0.1269 F   0  0  0  0  0  0  0  0  0  0  0  0
    3.0299    0.6103   -1.5967 F   0  0  0  0  0  0  0  0  0  0  0  0
    3.3863    1.3078    0.5774 F   0  0  0  0  0  0  0  0  0  0  0  0
    1.1937    0.2775    2.3357 F   0  0  0  0  0  0  0  0  0  0  0  0
  1  7  1  0  0  0  0
  2  8  1  6  0  0  0
  2  1  1  0  0  0  0
  2 20  1  0  0  0  0
  3 16  1  6  0  0  0
  3  2  1  0  0  0  0
  4  5  2  0  0  0  0
  4  3  1  0  0  0  0
  5  6  1  0  0  0  0
  6 11  1  0  0  0  0
  6  1  2  0  0  0  0
  9  4  1  0  0  0  0
 10  5  1  0  0  0  0
 11 12  2  0  0  0  0
 13 11  2  0  0  0  0
 15 14  3  0  0  0  0
 16 17  1  0  0  0  0
 16 19  1  0  0  0  0
 18 16  1  0  0  0  0
M  RAD  1   3   2
M  END
