Coordinates from ORCA-job p-NO2-Ph-N2-BF4-B3LYPG-6-31G_dp-scan-d09-49-n400
 OpenBabel08281821153D

 20 19  0  0  1  0  0  0  0  0999 V2000
   -0.8788    0.5288    1.4198 C   0  0  0  0  0  0  0  0  0  0  0  0
    0.5227    0.1381    1.1722 C   0  0  1  0  0  0  0  0  0  0  0  0
    1.1661    0.4855   -0.1071 C   0  0  2  0  0  0  0  0  0  0  0  0
    0.2921    0.8195   -1.1623 C   0  0  0  0  0  0  0  0  0  0  0  0
   -1.0581    1.0254   -0.9526 C   0  0  0  0  0  0  0  0  0  0  0  0
   -1.6297    0.8791    0.3467 C   0  0  0  0  0  0  0  0  0  0  0  0
   -1.2980    0.4566    2.4174 H   0  0  0  0  0  0  0  0  0  0  0  0
    0.4149   -0.9533    0.8944 H   0  0  0  0  0  0  0  0  0  0  0  0
    0.7324    0.9788   -2.1409 H   0  0  0  0  0  0  0  0  0  0  0  0
   -1.7186    1.3253   -1.7596 H   0  0  0  0  0  0  0  0  0  0  0  0
   -3.0654    1.1915    0.5330 N   0  0  0  0  0  0  0  0  0  0  0  0
   -3.5270    1.0476    1.6587 O   0  0  0  0  0  0  0  0  0  0  0  0
   -3.6806    1.5704   -0.4585 O   0  0  0  0  0  0  0  0  0  0  0  0
    1.4254    3.1165    1.8072 N   0  0  0  0  0  0  0  0  0  0  0  0
    2.0077    3.8995    2.3257 N   0  0  0  0  0  0  0  0  0  0  0  0
    2.7919    0.1743   -0.3633 B   0  0  0  0  0  0  0  0  0  0  0  0
    2.8691   -1.1924   -0.0689 F   0  0  0  0  0  0  0  0  0  0  0  0
    3.0380    0.4432   -1.7043 F   0  0  0  0  0  0  0  0  0  0  0  0
    3.5388    0.9623    0.4895 F   0  0  0  0  0  0  0  0  0  0  0  0
    1.3003    0.2219    2.2858 F   0  0  0  0  0  0  0  0  0  0  0  0
  1  7  1  0  0  0  0
  2  8  1  6  0  0  0
  2  1  1  0  0  0  0
  2 20  1  0  0  0  0
  3 16  1  6  0  0  0
  3  2  1  0  0  0  0
  4  5  2  0  0  0  0
  4  3  1  0  0  0  0
  5  6  1  0  0  0  0
  6 11  1  0  0  0  0
  6  1  2  0  0  0  0
  9  4  1  0  0  0  0
 10  5  1  0  0  0  0
 11 12  2  0  0  0  0
 13 11  2  0  0  0  0
 14 15  3  0  0  0  0
 16 17  1  0  0  0  0
 16 19  1  0  0  0  0
 18 16  1  0  0  0  0
M  RAD  1   3   2
M  END
