Coordinates from ORCA-job p-NO2-Ph-N2-BF4-B3LYPG-6-31G_dp-scan-d09-49-n400
 OpenBabel08281821153D

 20 19  0  0  1  0  0  0  0  0999 V2000
   -0.8837    0.5255    1.4195 C   0  0  0  0  0  0  0  0  0  0  0  0
    0.5180    0.1348    1.1725 C   0  0  1  0  0  0  0  0  0  0  0  0
    1.1626    0.4851   -0.1052 C   0  0  2  0  0  0  0  0  0  0  0  0
    0.2897    0.8198   -1.1612 C   0  0  0  0  0  0  0  0  0  0  0  0
   -1.0607    1.0251   -0.9525 C   0  0  0  0  0  0  0  0  0  0  0  0
   -1.6335    0.8774    0.3462 C   0  0  0  0  0  0  0  0  0  0  0  0
   -1.3040    0.4517    2.4165 H   0  0  0  0  0  0  0  0  0  0  0  0
    0.4093   -0.9560    0.8927 H   0  0  0  0  0  0  0  0  0  0  0  0
    0.7310    0.9808   -2.1389 H   0  0  0  0  0  0  0  0  0  0  0  0
   -1.7206    1.3259   -1.7598 H   0  0  0  0  0  0  0  0  0  0  0  0
   -3.0693    1.1898    0.5315 N   0  0  0  0  0  0  0  0  0  0  0  0
   -3.5319    1.0448    1.6566 O   0  0  0  0  0  0  0  0  0  0  0  0
   -3.6837    1.5698   -0.4602 O   0  0  0  0  0  0  0  0  0  0  0  0
    1.4458    3.1052    1.7966 N   0  0  0  0  0  0  0  0  0  0  0  0
    2.0414    3.8827    2.3080 N   0  0  0  0  0  0  0  0  0  0  0  0
    2.7910    0.1844   -0.3567 B   0  0  0  0  0  0  0  0  0  0  0  0
    2.8827   -1.1792   -0.0555 F   0  0  0  0  0  0  0  0  0  0  0  0
    3.0377    0.4499   -1.6985 F   0  0  0  0  0  0  0  0  0  0  0  0
    3.5267    0.9853    0.4942 F   0  0  0  0  0  0  0  0  0  0  0  0
    1.2946    0.2159    2.2870 F   0  0  0  0  0  0  0  0  0  0  0  0
  1  7  1  0  0  0  0
  2  8  1  6  0  0  0
  2  1  1  0  0  0  0
  2 20  1  0  0  0  0
  3 16  1  6  0  0  0
  3  2  1  0  0  0  0
  4  5  2  0  0  0  0
  4  3  1  0  0  0  0
  5  6  1  0  0  0  0
  6 11  1  0  0  0  0
  6  1  2  0  0  0  0
  9  4  1  0  0  0  0
 10  5  1  0  0  0  0
 11 12  2  0  0  0  0
 13 11  2  0  0  0  0
 14 15  3  0  0  0  0
 16 17  1  0  0  0  0
 16 19  1  0  0  0  0
 18 16  1  0  0  0  0
M  RAD  1   3   2
M  END
