Coordinates from ORCA-job p-NO2-Ph-N2-BF4-B3LYPG-6-31G_dp-scan-d09-49-n400
 OpenBabel08281821153D

 20 19  0  0  1  0  0  0  0  0999 V2000
   -0.7605    0.6242    1.4059 C   0  0  0  0  0  0  0  0  0  0  0  0
    0.6212    0.1858    1.1326 C   0  0  1  0  0  0  0  0  0  0  0  0
    1.2242    0.4298   -0.1908 C   0  0  2  0  0  0  0  0  0  0  0  0
    0.3193    0.7318   -1.2289 C   0  0  0  0  0  0  0  0  0  0  0  0
   -1.0165    0.9887   -0.9825 C   0  0  0  0  0  0  0  0  0  0  0  0
   -1.5432    0.9299    0.3415 C   0  0  0  0  0  0  0  0  0  0  0  0
   -1.1431    0.6235    2.4204 H   0  0  0  0  0  0  0  0  0  0  0  0
    0.4796   -0.9176    0.9264 H   0  0  0  0  0  0  0  0  0  0  0  0
    0.7253    0.8192   -2.2311 H   0  0  0  0  0  0  0  0  0  0  0  0
   -1.6983    1.2616   -1.7815 H   0  0  0  0  0  0  0  0  0  0  0  0
   -2.9625    1.2906    0.5613 N   0  0  0  0  0  0  0  0  0  0  0  0
   -3.3844    1.2242    1.7097 O   0  0  0  0  0  0  0  0  0  0  0  0
   -3.6055    1.6284   -0.4275 O   0  0  0  0  0  0  0  0  0  0  0  0
    0.9597    3.2826    2.1980 N   0  0  0  0  0  0  0  0  0  0  0  0
    1.3067    4.1155    2.8357 N   0  0  0  0  0  0  0  0  0  0  0  0
    2.8138   -0.0000   -0.5073 B   0  0  0  0  0  0  0  0  0  0  0  0
    2.7802   -1.3658   -0.1853 F   0  0  0  0  0  0  0  0  0  0  0  0
    3.0168    0.2181   -1.8643 F   0  0  0  0  0  0  0  0  0  0  0  0
    3.6672    0.7279    0.2914 F   0  0  0  0  0  0  0  0  0  0  0  0
    1.4430    0.3202    2.2092 F   0  0  0  0  0  0  0  0  0  0  0  0
  1  7  1  0  0  0  0
  2  8  1  6  0  0  0
  2  1  1  0  0  0  0
  2 20  1  0  0  0  0
  3 16  1  6  0  0  0
  3  2  1  0  0  0  0
  4  5  2  0  0  0  0
  4  3  1  0  0  0  0
  5  6  1  0  0  0  0
  6 11  1  0  0  0  0
  6  1  2  0  0  0  0
  9  4  1  0  0  0  0
 10  5  1  0  0  0  0
 11 12  2  0  0  0  0
 13 11  2  0  0  0  0
 14 15  3  0  0  0  0
 16 17  1  0  0  0  0
 16 19  1  0  0  0  0
 18 16  1  0  0  0  0
M  RAD  1   3   2
M  END
