Coordinates from ORCA-job p-NO2-Ph-N2-BF4-B3LYPG-6-31G_dp-scan-d09-49-n400
 OpenBabel08281821153D

 20 19  0  0  1  0  0  0  0  0999 V2000
   -0.9333    0.5035    1.4193 C   0  0  0  0  0  0  0  0  0  0  0  0
    0.4802    0.1464    1.1900 C   0  0  1  0  0  0  0  0  0  0  0  0
    1.1374    0.5261   -0.0730 C   0  0  2  0  0  0  0  0  0  0  0  0
    0.2743    0.8532   -1.1388 C   0  0  0  0  0  0  0  0  0  0  0  0
   -1.0838    1.0271   -0.9492 C   0  0  0  0  0  0  0  0  0  0  0  0
   -1.6735    0.8518    0.3379 C   0  0  0  0  0  0  0  0  0  0  0  0
   -1.3672    0.4090    2.4086 H   0  0  0  0  0  0  0  0  0  0  0  0
    0.3973   -0.9420    0.8914 H   0  0  0  0  0  0  0  0  0  0  0  0
    0.7271    1.0351   -2.1076 H   0  0  0  0  0  0  0  0  0  0  0  0
   -1.7370    1.3235   -1.7635 H   0  0  0  0  0  0  0  0  0  0  0  0
   -3.1189    1.1302    0.5038 N   0  0  0  0  0  0  0  0  0  0  0  0
   -3.5960    0.9600    1.6191 O   0  0  0  0  0  0  0  0  0  0  0  0
   -3.7252    1.5098   -0.4929 O   0  0  0  0  0  0  0  0  0  0  0  0
    1.5284    3.1000    1.8391 N   0  0  0  0  0  0  0  0  0  0  0  0
    2.4921    3.6167    1.9952 N   0  0  0  0  0  0  0  0  0  0  0  0
    2.7788    0.2749   -0.2981 B   0  0  0  0  0  0  0  0  0  0  0  0
    2.9129   -1.0836    0.0048 F   0  0  0  0  0  0  0  0  0  0  0  0
    3.0383    0.5508   -1.6353 F   0  0  0  0  0  0  0  0  0  0  0  0
    3.4736    1.1013    0.5651 F   0  0  0  0  0  0  0  0  0  0  0  0
    1.2379    0.2249    2.3172 F   0  0  0  0  0  0  0  0  0  0  0  0
  1  7  1  0  0  0  0
  2  8  1  6  0  0  0
  2  1  1  0  0  0  0
  2 20  1  0  0  0  0
  3 16  1  6  0  0  0
  3  2  1  0  0  0  0
  4  5  2  0  0  0  0
  4  3  1  0  0  0  0
  5  6  1  0  0  0  0
  6 11  1  0  0  0  0
  6  1  2  0  0  0  0
  9  4  1  0  0  0  0
 10  5  1  0  0  0  0
 11 12  2  0  0  0  0
 13 11  2  0  0  0  0
 14 15  3  0  0  0  0
 16 17  1  0  0  0  0
 16 19  1  0  0  0  0
 18 16  1  0  0  0  0
M  RAD  1   3   2
M  END
