Coordinates from ORCA-job p-NO2-Ph-N2-BF4-B3LYPG-6-31G_dp-scan-d09-49-n400
 OpenBabel08281821153D

 20 19  0  0  1  0  0  0  0  0999 V2000
   -0.8925    0.5230    1.4176 C   0  0  0  0  0  0  0  0  0  0  0  0
    0.5111    0.1376    1.1734 C   0  0  1  0  0  0  0  0  0  0  0  0
    1.1570    0.4894   -0.1031 C   0  0  2  0  0  0  0  0  0  0  0  0
    0.2850    0.8211   -1.1608 C   0  0  0  0  0  0  0  0  0  0  0  0
   -1.0664    1.0223   -0.9547 C   0  0  0  0  0  0  0  0  0  0  0  0
   -1.6412    0.8725    0.3428 C   0  0  0  0  0  0  0  0  0  0  0  0
   -1.3146    0.4475    2.4137 H   0  0  0  0  0  0  0  0  0  0  0  0
    0.4066   -0.9533    0.8916 H   0  0  0  0  0  0  0  0  0  0  0  0
    0.7277    0.9829   -2.1378 H   0  0  0  0  0  0  0  0  0  0  0  0
   -1.7257    1.3208   -1.7633 H   0  0  0  0  0  0  0  0  0  0  0  0
   -3.0787    1.1794    0.5252 N   0  0  0  0  0  0  0  0  0  0  0  0
   -3.5430    1.0325    1.6493 O   0  0  0  0  0  0  0  0  0  0  0  0
   -3.6923    1.5576   -0.4677 O   0  0  0  0  0  0  0  0  0  0  0  0
    1.4902    3.1036    1.8033 N   0  0  0  0  0  0  0  0  0  0  0  0
    2.1082    3.8690    2.3062 N   0  0  0  0  0  0  0  0  0  0  0  0
    2.7875    0.1957   -0.3514 B   0  0  0  0  0  0  0  0  0  0  0  0
    2.8901   -1.1638   -0.0371 F   0  0  0  0  0  0  0  0  0  0  0  0
    3.0324    0.4503   -1.6957 F   0  0  0  0  0  0  0  0  0  0  0  0
    3.5167    1.0108    0.4915 F   0  0  0  0  0  0  0  0  0  0  0  0
    1.2847    0.2198    2.2899 F   0  0  0  0  0  0  0  0  0  0  0  0
  1  7  1  0  0  0  0
  2  8  1  6  0  0  0
  2  1  1  0  0  0  0
  2 20  1  0  0  0  0
  3 16  1  6  0  0  0
  3  2  1  0  0  0  0
  4  5  2  0  0  0  0
  4  3  1  0  0  0  0
  5  6  1  0  0  0  0
  6 11  1  0  0  0  0
  6  1  2  0  0  0  0
  9  4  1  0  0  0  0
 10  5  1  0  0  0  0
 11 12  2  0  0  0  0
 13 11  2  0  0  0  0
 14 15  3  0  0  0  0
 16 17  1  0  0  0  0
 16 19  1  0  0  0  0
 18 16  1  0  0  0  0
M  RAD  1   3   2
M  END
