Coordinates from ORCA-job p-NO2-Ph-N2-BF4-B3LYPG-6-31G_dp-scan-d09-49-n400
 OpenBabel08281821153D

 20 20  0  0  1  0  0  0  0  0999 V2000
   -0.9380    0.4821    1.4430 C   0  0  0  0  0  0  0  0  0  0  0  0
    0.4954    0.0954    1.2264 C   0  0  1  0  0  0  0  0  0  0  0  0
    1.2026    0.9269    0.1325 C   0  0  1  0  0  0  0  0  0  0  0  0
    0.2768    1.1104   -1.0626 C   0  0  0  0  0  0  0  0  0  0  0  0
   -1.0583    1.0903   -0.9325 C   0  0  0  0  0  0  0  0  0  0  0  0
   -1.6536    0.8797    0.3837 C   0  0  0  0  0  0  0  0  0  0  0  0
   -1.3847    0.3481    2.4211 H   0  0  0  0  0  0  0  0  0  0  0  0
    0.5216   -0.9614    0.9172 H   0  0  0  0  0  0  0  0  0  0  0  0
    0.7353    1.3450   -2.0177 H   0  0  0  0  0  0  0  0  0  0  0  0
   -1.7206    1.2743   -1.7688 H   0  0  0  0  0  0  0  0  0  0  0  0
   -3.0943    1.1473    0.5463 N   0  0  0  0  0  0  0  0  0  0  0  0
   -3.5855    0.9996    1.6620 O   0  0  0  0  0  0  0  0  0  0  0  0
   -3.7098    1.4981   -0.4596 O   0  0  0  0  0  0  0  0  0  0  0  0
    1.4057    2.3187    0.7055 N   0  0  0  0  0  0  0  0  0  0  0  0
    2.4650    2.5922    1.2640 N   0  0  0  0  0  0  0  0  0  0  0  0
    2.5595    0.2425   -0.3355 B   0  0  0  0  0  0  0  0  0  0  0  0
    2.9286   -0.9481    0.1118 F   0  0  0  0  0  0  0  0  0  0  0  0
    3.2686    0.7954   -1.3094 F   0  0  0  0  0  0  0  0  0  0  0  0
    3.3250    1.6842    1.2905 F   0  0  0  0  0  0  0  0  0  0  0  0
    1.2036    0.1981    2.4150 F   0  0  0  0  0  0  0  0  0  0  0  0
  1  7  1  0  0  0  0
  2  8  1  6  0  0  0
  2  1  1  0  0  0  0
  2 20  1  0  0  0  0
  3 16  1  6  0  0  0
  3 14  1  0  0  0  0
  3  2  1  0  0  0  0
  4  5  2  0  0  0  0
  4  3  1  0  0  0  0
  5  6  1  0  0  0  0
  6 11  1  0  0  0  0
  6  1  2  0  0  0  0
  9  4  1  0  0  0  0
 10  5  1  0  0  0  0
 11 12  2  0  0  0  0
 13 11  2  0  0  0  0
 14 15  2  0  0  0  0
 15 19  1  0  0  0  0
 16 17  1  0  0  0  0
 18 16  1  0  0  0  0
M  END
