Coordinates from ORCA-job p-NO2-Ph-N2-BF4-B3LYPG-6-31G_dp-scan-d09-49-n400
 OpenBabel08281821153D

 20 19  0  0  1  0  0  0  0  0999 V2000
   -0.8669    0.5339    1.4212 C   0  0  0  0  0  0  0  0  0  0  0  0
    0.5313    0.1334    1.1690 C   0  0  1  0  0  0  0  0  0  0  0  0
    1.1722    0.4760   -0.1127 C   0  0  2  0  0  0  0  0  0  0  0  0
    0.2966    0.8130   -1.1656 C   0  0  0  0  0  0  0  0  0  0  0  0
   -1.0516    1.0271   -0.9515 C   0  0  0  0  0  0  0  0  0  0  0  0
   -1.6194    0.8869    0.3501 C   0  0  0  0  0  0  0  0  0  0  0  0
   -1.2831    0.4658    2.4203 H   0  0  0  0  0  0  0  0  0  0  0  0
    0.4145   -0.9579    0.8953 H   0  0  0  0  0  0  0  0  0  0  0  0
    0.7346    0.9686   -2.1458 H   0  0  0  0  0  0  0  0  0  0  0  0
   -1.7132    1.3297   -1.7567 H   0  0  0  0  0  0  0  0  0  0  0  0
   -3.0523    1.2090    0.5410 N   0  0  0  0  0  0  0  0  0  0  0  0
   -3.5107    1.0704    1.6687 O   0  0  0  0  0  0  0  0  0  0  0  0
   -3.6689    1.5893   -0.4491 O   0  0  0  0  0  0  0  0  0  0  0  0
    1.3704    3.1117    1.8107 N   0  0  0  0  0  0  0  0  0  0  0  0
    1.9190    3.9090    2.3436 N   0  0  0  0  0  0  0  0  0  0  0  0
    2.7970    0.1620   -0.3722 B   0  0  0  0  0  0  0  0  0  0  0  0
    2.8745   -1.2042   -0.0763 F   0  0  0  0  0  0  0  0  0  0  0  0
    3.0396    0.4290   -1.7144 F   0  0  0  0  0  0  0  0  0  0  0  0
    3.5456    0.9506    0.4776 F   0  0  0  0  0  0  0  0  0  0  0  0
    1.3137    0.2154    2.2796 F   0  0  0  0  0  0  0  0  0  0  0  0
  1  7  1  0  0  0  0
  2  8  1  6  0  0  0
  2  1  1  0  0  0  0
  2 20  1  0  0  0  0
  3 16  1  6  0  0  0
  3  2  1  0  0  0  0
  4  5  2  0  0  0  0
  4  3  1  0  0  0  0
  5  6  1  0  0  0  0
  6 11  1  0  0  0  0
  6  1  2  0  0  0  0
  9  4  1  0  0  0  0
 10  5  1  0  0  0  0
 11 12  2  0  0  0  0
 13 11  2  0  0  0  0
 14 15  3  0  0  0  0
 16 17  1  0  0  0  0
 16 19  1  0  0  0  0
 18 16  1  0  0  0  0
M  RAD  1   3   2
M  END
