Coordinates from ORCA-job p-NO2-Ph-N2-BF4-B3LYPG-6-31G_dp-scan-d09-49-n400
 OpenBabel08281821153D

 20 19  0  0  1  0  0  0  0  0999 V2000
   -0.9777    0.5008    1.4203 C   0  0  0  0  0  0  0  0  0  0  0  0
    0.4454    0.1724    1.2086 C   0  0  1  0  0  0  0  0  0  0  0  0
    1.1106    0.5680   -0.0449 C   0  0  2  0  0  0  0  0  0  0  0  0
    0.2563    0.8744   -1.1223 C   0  0  0  0  0  0  0  0  0  0  0  0
   -1.1078    1.0231   -0.9494 C   0  0  0  0  0  0  0  0  0  0  0  0
   -1.7103    0.8366    0.3294 C   0  0  0  0  0  0  0  0  0  0  0  0
   -1.4224    0.3954    2.4038 H   0  0  0  0  0  0  0  0  0  0  0  0
    0.3831   -0.9161    0.9019 H   0  0  0  0  0  0  0  0  0  0  0  0
    0.7167    1.0656   -2.0858 H   0  0  0  0  0  0  0  0  0  0  0  0
   -1.7560    1.3077   -1.7720 H   0  0  0  0  0  0  0  0  0  0  0  0
   -3.1631    1.0873    0.4768 N   0  0  0  0  0  0  0  0  0  0  0  0
   -3.6509    0.9044    1.5853 O   0  0  0  0  0  0  0  0  0  0  0  0
   -3.7629    1.4576   -0.5271 O   0  0  0  0  0  0  0  0  0  0  0  0
    1.7029    3.1152    1.8096 N   0  0  0  0  0  0  0  0  0  0  0  0
    2.8031    3.0358    1.7114 N   0  0  0  0  0  0  0  0  0  0  0  0
    2.7672    0.3965   -0.2336 B   0  0  0  0  0  0  0  0  0  0  0  0
    3.0071   -0.9196    0.1547 F   0  0  0  0  0  0  0  0  0  0  0  0
    3.0375    0.6231   -1.5759 F   0  0  0  0  0  0  0  0  0  0  0  0
    3.3776    1.3350    0.5968 F   0  0  0  0  0  0  0  0  0  0  0  0
    1.1866    0.2554    2.3452 F   0  0  0  0  0  0  0  0  0  0  0  0
  1  7  1  0  0  0  0
  2  8  1  6  0  0  0
  2  1  1  0  0  0  0
  2 20  1  0  0  0  0
  3 16  1  6  0  0  0
  3  2  1  0  0  0  0
  4  5  2  0  0  0  0
  4  3  1  0  0  0  0
  5  6  1  0  0  0  0
  6 11  1  0  0  0  0
  6  1  2  0  0  0  0
  9  4  1  0  0  0  0
 10  5  1  0  0  0  0
 11 12  2  0  0  0  0
 13 11  2  0  0  0  0
 15 14  3  0  0  0  0
 16 17  1  0  0  0  0
 16 19  1  0  0  0  0
 18 16  1  0  0  0  0
M  RAD  1   3   2
M  END
