Coordinates from ORCA-job p-NO2-Ph-N2-BF4-B3LYPG-6-31G_dp-scan-d09-49-n400
 OpenBabel08281821153D

 20 20  0  0  1  0  0  0  0  0999 V2000
   -0.9981    0.4331    1.4447 C   0  0  0  0  0  0  0  0  0  0  0  0
    0.4538    0.1027    1.2646 C   0  0  1  0  0  0  0  0  0  0  0  0
    1.1705    0.9488    0.2086 C   0  0  1  0  0  0  0  0  0  0  0  0
    0.2957    1.1961   -0.9878 C   0  0  0  0  0  0  0  0  0  0  0  0
   -1.0453    1.1477   -0.9024 C   0  0  0  0  0  0  0  0  0  0  0  0
   -1.6837    0.8711    0.3801 C   0  0  0  0  0  0  0  0  0  0  0  0
   -1.4780    0.2357    2.3962 H   0  0  0  0  0  0  0  0  0  0  0  0
    0.5368   -0.9384    0.9112 H   0  0  0  0  0  0  0  0  0  0  0  0
    0.7951    1.4419   -1.9176 H   0  0  0  0  0  0  0  0  0  0  0  0
   -1.6821    1.3355   -1.7579 H   0  0  0  0  0  0  0  0  0  0  0  0
   -3.1358    1.1047    0.5000 N   0  0  0  0  0  0  0  0  0  0  0  0
   -3.6636    0.8896    1.5869 O   0  0  0  0  0  0  0  0  0  0  0  0
   -3.7171    1.5013   -0.5086 O   0  0  0  0  0  0  0  0  0  0  0  0
    1.4587    2.3109    0.8976 N   0  0  0  0  0  0  0  0  0  0  0  0
    2.5342    2.6383    1.1653 N   0  0  0  0  0  0  0  0  0  0  0  0
    2.7105    0.4250   -0.1375 B   0  0  0  0  0  0  0  0  0  0  0  0
    2.9781   -0.8120    0.3600 F   0  0  0  0  0  0  0  0  0  0  0  0
    3.0566    0.6331   -1.4402 F   0  0  0  0  0  0  0  0  0  0  0  0
    3.5388    1.4553    0.6948 F   0  0  0  0  0  0  0  0  0  0  0  0
    1.1178    0.1986    2.4751 F   0  0  0  0  0  0  0  0  0  0  0  0
  1  7  1  0  0  0  0
  2  8  1  6  0  0  0
  2  1  1  0  0  0  0
  2 20  1  0  0  0  0
  3 16  1  6  0  0  0
  3 14  1  0  0  0  0
  3  2  1  0  0  0  0
  4  5  2  0  0  0  0
  4  3  1  0  0  0  0
  5  6  1  0  0  0  0
  6 11  1  0  0  0  0
  6  1  2  0  0  0  0
  9  4  1  0  0  0  0
 10  5  1  0  0  0  0
 11 12  2  0  0  0  0
 13 11  2  0  0  0  0
 14 15  2  0  0  0  0
 16 17  1  0  0  0  0
 16 19  1  0  0  0  0
 18 16  1  0  0  0  0
M  RAD  1  15   2
M  END
