Coordinates from ORCA-job p-NO2-Ph-N2-BF4-B3LYPG-6-31G_dp-scan-d09-49-n400
 OpenBabel08281821153D

 20 19  0  0  1  0  0  0  0  0999 V2000
   -0.7632    0.6216    1.4067 C   0  0  0  0  0  0  0  0  0  0  0  0
    0.6188    0.1836    1.1337 C   0  0  1  0  0  0  0  0  0  0  0  0
    1.2228    0.4305   -0.1886 C   0  0  2  0  0  0  0  0  0  0  0  0
    0.3189    0.7343   -1.2270 C   0  0  0  0  0  0  0  0  0  0  0  0
   -1.0172    0.9903   -0.9813 C   0  0  0  0  0  0  0  0  0  0  0  0
   -1.5450    0.9291    0.3423 C   0  0  0  0  0  0  0  0  0  0  0  0
   -1.1466    0.6191    2.4209 H   0  0  0  0  0  0  0  0  0  0  0  0
    0.4772   -0.9194    0.9256 H   0  0  0  0  0  0  0  0  0  0  0  0
    0.7258    0.8239   -2.2286 H   0  0  0  0  0  0  0  0  0  0  0  0
   -1.6984    1.2646   -1.7803 H   0  0  0  0  0  0  0  0  0  0  0  0
   -2.9644    1.2895    0.5615 N   0  0  0  0  0  0  0  0  0  0  0  0
   -3.3872    1.2214    1.7095 O   0  0  0  0  0  0  0  0  0  0  0  0
   -3.6065    1.6293   -0.4272 O   0  0  0  0  0  0  0  0  0  0  0  0
    0.9695    3.2749    2.1830 N   0  0  0  0  0  0  0  0  0  0  0  0
    1.3190    4.1078    2.8194 N   0  0  0  0  0  0  0  0  0  0  0  0
    2.8137    0.0046   -0.5033 B   0  0  0  0  0  0  0  0  0  0  0  0
    2.7845   -1.3613   -0.1818 F   0  0  0  0  0  0  0  0  0  0  0  0
    3.0183    0.2237   -1.8598 F   0  0  0  0  0  0  0  0  0  0  0  0
    3.6634    0.7355    0.2970 F   0  0  0  0  0  0  0  0  0  0  0  0
    1.4396    0.3159    2.2113 F   0  0  0  0  0  0  0  0  0  0  0  0
  1  7  1  0  0  0  0
  2  8  1  6  0  0  0
  2  1  1  0  0  0  0
  2 20  1  0  0  0  0
  3 16  1  6  0  0  0
  3  2  1  0  0  0  0
  4  5  2  0  0  0  0
  4  3  1  0  0  0  0
  5  6  1  0  0  0  0
  6 11  1  0  0  0  0
  6  1  2  0  0  0  0
  9  4  1  0  0  0  0
 10  5  1  0  0  0  0
 11 12  2  0  0  0  0
 13 11  2  0  0  0  0
 14 15  3  0  0  0  0
 16 17  1  0  0  0  0
 16 19  1  0  0  0  0
 18 16  1  0  0  0  0
M  RAD  1   3   2
M  END
