Coordinates from ORCA-job p-NO2-Ph-N2-BF4-B3LYPG-6-31G_dp-scan-d09-49-n400
 OpenBabel08281821153D

 20 20  0  0  1  0  0  0  0  0999 V2000
   -1.0034    0.4476    1.4537 C   0  0  0  0  0  0  0  0  0  0  0  0
    0.4519    0.1413    1.2813 C   0  0  1  0  0  0  0  0  0  0  0  0
    1.1633    0.9495    0.2061 C   0  0  1  0  0  0  0  0  0  0  0  0
    0.2999    1.2054   -0.9757 C   0  0  0  0  0  0  0  0  0  0  0  0
   -1.0452    1.1416   -0.8963 C   0  0  0  0  0  0  0  0  0  0  0  0
   -1.6901    0.8621    0.3783 C   0  0  0  0  0  0  0  0  0  0  0  0
   -1.4858    0.2501    2.4040 H   0  0  0  0  0  0  0  0  0  0  0  0
    0.5463   -0.9007    0.9264 H   0  0  0  0  0  0  0  0  0  0  0  0
    0.8008    1.4618   -1.9018 H   0  0  0  0  0  0  0  0  0  0  0  0
   -1.6787    1.3244   -1.7557 H   0  0  0  0  0  0  0  0  0  0  0  0
   -3.1478    1.0700    0.4834 N   0  0  0  0  0  0  0  0  0  0  0  0
   -3.6787    0.8565    1.5687 O   0  0  0  0  0  0  0  0  0  0  0  0
   -3.7274    1.4460   -0.5337 O   0  0  0  0  0  0  0  0  0  0  0  0
    1.5105    2.3617    0.9289 N   0  0  0  0  0  0  0  0  0  0  0  0
    2.5578    2.6911    1.2106 N   0  0  0  0  0  0  0  0  0  0  0  0
    2.7519    0.4412   -0.1313 B   0  0  0  0  0  0  0  0  0  0  0  0
    2.8899   -0.8584    0.2897 F   0  0  0  0  0  0  0  0  0  0  0  0
    3.0229    0.6503   -1.4628 F   0  0  0  0  0  0  0  0  0  0  0  0
    3.5914    1.3305    0.6698 F   0  0  0  0  0  0  0  0  0  0  0  0
    1.1135    0.2468    2.4893 F   0  0  0  0  0  0  0  0  0  0  0  0
  1  7  1  0  0  0  0
  2  8  1  6  0  0  0
  2  1  1  0  0  0  0
  2 20  1  0  0  0  0
  3 16  1  6  0  0  0
  3 14  1  0  0  0  0
  3  2  1  0  0  0  0
  4  5  2  0  0  0  0
  4  3  1  0  0  0  0
  5  6  1  0  0  0  0
  6 11  1  0  0  0  0
  6  1  2  0  0  0  0
  9  4  1  0  0  0  0
 10  5  1  0  0  0  0
 11 12  2  0  0  0  0
 13 11  2  0  0  0  0
 14 15  2  0  0  0  0
 16 17  1  0  0  0  0
 16 19  1  0  0  0  0
 18 16  1  0  0  0  0
M  RAD  1  15   2
M  END
