Coordinates from ORCA-job p-NO2-Ph-N2-BF4-B3LYPG-6-31G_dp-scan-d09-49-n400
 OpenBabel08281821153D

 20 19  0  0  1  0  0  0  0  0999 V2000
   -0.9497    0.5150    1.4176 C   0  0  0  0  0  0  0  0  0  0  0  0
    0.4691    0.1748    1.1961 C   0  0  1  0  0  0  0  0  0  0  0  0
    1.1264    0.5501   -0.0681 C   0  0  2  0  0  0  0  0  0  0  0  0
    0.2631    0.8562   -1.1395 C   0  0  0  0  0  0  0  0  0  0  0  0
   -1.0979    1.0158   -0.9558 C   0  0  0  0  0  0  0  0  0  0  0  0
   -1.6902    0.8443    0.3304 C   0  0  0  0  0  0  0  0  0  0  0  0
   -1.3857    0.4237    2.4064 H   0  0  0  0  0  0  0  0  0  0  0  0
    0.4003   -0.9166    0.9035 H   0  0  0  0  0  0  0  0  0  0  0  0
    0.7166    1.0340   -2.1088 H   0  0  0  0  0  0  0  0  0  0  0  0
   -1.7517    1.2970   -1.7751 H   0  0  0  0  0  0  0  0  0  0  0  0
   -3.1399    1.1050    0.4882 N   0  0  0  0  0  0  0  0  0  0  0  0
   -3.6192    0.9363    1.6028 O   0  0  0  0  0  0  0  0  0  0  0  0
   -3.7468    1.4697   -0.5136 O   0  0  0  0  0  0  0  0  0  0  0  0
    1.5731    3.1486    1.9043 N   0  0  0  0  0  0  0  0  0  0  0  0
    2.6627    3.3320    1.9157 N   0  0  0  0  0  0  0  0  0  0  0  0
    2.7738    0.3235   -0.2842 B   0  0  0  0  0  0  0  0  0  0  0  0
    2.9399   -1.0213    0.0559 F   0  0  0  0  0  0  0  0  0  0  0  0
    3.0303    0.5711   -1.6270 F   0  0  0  0  0  0  0  0  0  0  0  0
    3.4478    1.1902    0.5584 F   0  0  0  0  0  0  0  0  0  0  0  0
    1.2212    0.2695    2.3256 F   0  0  0  0  0  0  0  0  0  0  0  0
  1  7  1  0  0  0  0
  2  8  1  6  0  0  0
  2  1  1  0  0  0  0
  2 20  1  0  0  0  0
  3 16  1  6  0  0  0
  3  2  1  0  0  0  0
  4  5  2  0  0  0  0
  4  3  1  0  0  0  0
  5  6  1  0  0  0  0
  6 11  1  0  0  0  0
  6  1  2  0  0  0  0
  9  4  1  0  0  0  0
 10  5  1  0  0  0  0
 11 12  2  0  0  0  0
 13 11  2  0  0  0  0
 14 15  3  0  0  0  0
 16 17  1  0  0  0  0
 16 19  1  0  0  0  0
 18 16  1  0  0  0  0
M  RAD  1   3   2
M  END
