Coordinates from ORCA-job p-NO2-Ph-N2-BF4-B3LYPG-6-31G_dp-scan-d09-49-n400
 OpenBabel08281821153D

 20 20  0  0  1  0  0  0  0  0999 V2000
   -0.9259    0.4923    1.4450 C   0  0  0  0  0  0  0  0  0  0  0  0
    0.5066    0.1073    1.2276 C   0  0  1  0  0  0  0  0  0  0  0  0
    1.2109    0.9279    0.1240 C   0  0  1  0  0  0  0  0  0  0  0  0
    0.2793    1.1082   -1.0679 C   0  0  0  0  0  0  0  0  0  0  0  0
   -1.0555    1.0844   -0.9348 C   0  0  0  0  0  0  0  0  0  0  0  0
   -1.6460    0.8762    0.3834 C   0  0  0  0  0  0  0  0  0  0  0  0
   -1.3699    0.3673    2.4254 H   0  0  0  0  0  0  0  0  0  0  0  0
    0.5344   -0.9560    0.9427 H   0  0  0  0  0  0  0  0  0  0  0  0
    0.7322    1.3545   -2.0230 H   0  0  0  0  0  0  0  0  0  0  0  0
   -1.7200    1.2726   -1.7682 H   0  0  0  0  0  0  0  0  0  0  0  0
   -3.0877    1.1367    0.5484 N   0  0  0  0  0  0  0  0  0  0  0  0
   -3.5751    0.9954    1.6668 O   0  0  0  0  0  0  0  0  0  0  0  0
   -3.7092    1.4749   -0.4582 O   0  0  0  0  0  0  0  0  0  0  0  0
    1.4261    2.3395    0.6675 N   0  0  0  0  0  0  0  0  0  0  0  0
    2.4875    2.5622    1.2843 N   0  0  0  0  0  0  0  0  0  0  0  0
    2.5337    0.2100   -0.3742 B   0  0  0  0  0  0  0  0  0  0  0  0
    2.8617   -1.0124    0.0176 F   0  0  0  0  0  0  0  0  0  0  0  0
    3.3057    0.8009   -1.2751 F   0  0  0  0  0  0  0  0  0  0  0  0
    3.2332    1.7457    1.3859 F   0  0  0  0  0  0  0  0  0  0  0  0
    1.2209    0.2311    2.4156 F   0  0  0  0  0  0  0  0  0  0  0  0
  1  7  1  0  0  0  0
  2  8  1  6  0  0  0
  2  1  1  0  0  0  0
  2 20  1  0  0  0  0
  3 16  1  6  0  0  0
  3 14  1  0  0  0  0
  3  2  1  0  0  0  0
  4  5  2  0  0  0  0
  4  3  1  0  0  0  0
  5  6  1  0  0  0  0
  6 11  1  0  0  0  0
  6  1  2  0  0  0  0
  9  4  1  0  0  0  0
 10  5  1  0  0  0  0
 11 12  2  0  0  0  0
 13 11  2  0  0  0  0
 14 15  2  0  0  0  0
 15 19  1  0  0  0  0
 16 17  1  0  0  0  0
 18 16  1  0  0  0  0
M  END
