Coordinates from ORCA-job p-NO2-Ph-N2-BF4-B3LYPG-6-31G_dp-scan-d09-49-n400
 OpenBabel08281821153D

 20 19  0  0  1  0  0  0  0  0999 V2000
   -0.9252    0.4908    1.4224 C   0  0  0  0  0  0  0  0  0  0  0  0
    0.4862    0.1281    1.1895 C   0  0  1  0  0  0  0  0  0  0  0  0
    1.1449    0.5149   -0.0705 C   0  0  2  0  0  0  0  0  0  0  0  0
    0.2833    0.8594   -1.1326 C   0  0  0  0  0  0  0  0  0  0  0  0
   -1.0733    1.0387   -0.9410 C   0  0  0  0  0  0  0  0  0  0  0  0
   -1.6638    0.8537    0.3450 C   0  0  0  0  0  0  0  0  0  0  0  0
   -1.3595    0.3892    2.4109 H   0  0  0  0  0  0  0  0  0  0  0  0
    0.3992   -0.9577    0.8835 H   0  0  0  0  0  0  0  0  0  0  0  0
    0.7368    1.0491   -2.0996 H   0  0  0  0  0  0  0  0  0  0  0  0
   -1.7253    1.3465   -1.7520 H   0  0  0  0  0  0  0  0  0  0  0  0
   -3.1075    1.1382    0.5138 N   0  0  0  0  0  0  0  0  0  0  0  0
   -3.5850    0.9618    1.6281 O   0  0  0  0  0  0  0  0  0  0  0  0
   -3.7126    1.5289   -0.4794 O   0  0  0  0  0  0  0  0  0  0  0  0
    1.5767    3.0943    1.7439 N   0  0  0  0  0  0  0  0  0  0  0  0
    2.3288    3.8423    2.0523 N   0  0  0  0  0  0  0  0  0  0  0  0
    2.7793    0.2336   -0.3044 B   0  0  0  0  0  0  0  0  0  0  0  0
    2.8659   -1.1426   -0.0616 F   0  0  0  0  0  0  0  0  0  0  0  0
    3.0509    0.5582   -1.6279 F   0  0  0  0  0  0  0  0  0  0  0  0
    3.4991    0.9945    0.5953 F   0  0  0  0  0  0  0  0  0  0  0  0
    1.2442    0.1967    2.3173 F   0  0  0  0  0  0  0  0  0  0  0  0
  1  7  1  0  0  0  0
  2  8  1  6  0  0  0
  2  1  1  0  0  0  0
  2 20  1  0  0  0  0
  3 16  1  6  0  0  0
  3  2  1  0  0  0  0
  4  5  2  0  0  0  0
  4  3  1  0  0  0  0
  5  6  1  0  0  0  0
  6 11  1  0  0  0  0
  6  1  2  0  0  0  0
  9  4  1  0  0  0  0
 10  5  1  0  0  0  0
 11 12  2  0  0  0  0
 13 11  2  0  0  0  0
 14 15  3  0  0  0  0
 16 17  1  0  0  0  0
 16 19  1  0  0  0  0
 18 16  1  0  0  0  0
M  RAD  1   3   2
M  END
