Coordinates from ORCA-job p-NO2-Ph-N2-BF4-B3LYPG-6-31G_dp-scan-d09-49-n400
 OpenBabel08281821153D

 20 19  0  0  1  0  0  0  0  0999 V2000
   -0.7797    0.5961    1.4164 C   0  0  0  0  0  0  0  0  0  0  0  0
    0.6062    0.1686    1.1464 C   0  0  1  0  0  0  0  0  0  0  0  0
    1.2206    0.4446   -0.1653 C   0  0  2  0  0  0  0  0  0  0  0  0
    0.3244    0.7673   -1.2048 C   0  0  0  0  0  0  0  0  0  0  0  0
   -1.0146    1.0134   -0.9654 C   0  0  0  0  0  0  0  0  0  0  0  0
   -1.5537    0.9224    0.3520 C   0  0  0  0  0  0  0  0  0  0  0  0
   -1.1719    0.5705    2.4271 H   0  0  0  0  0  0  0  0  0  0  0  0
    0.4710   -0.9308    0.9174 H   0  0  0  0  0  0  0  0  0  0  0  0
    0.7393    0.8789   -2.2009 H   0  0  0  0  0  0  0  0  0  0  0  0
   -1.6899    1.3020   -1.7644 H   0  0  0  0  0  0  0  0  0  0  0  0
   -2.9766    1.2721    0.5659 N   0  0  0  0  0  0  0  0  0  0  0  0
   -3.4096    1.1772    1.7082 O   0  0  0  0  0  0  0  0  0  0  0  0
   -3.6110    1.6313   -0.4209 O   0  0  0  0  0  0  0  0  0  0  0  0
    1.0142    3.2526    2.0647 N   0  0  0  0  0  0  0  0  0  0  0  0
    1.3813    4.0970    2.6754 N   0  0  0  0  0  0  0  0  0  0  0  0
    2.8130    0.0221   -0.4784 B   0  0  0  0  0  0  0  0  0  0  0  0
    2.7724   -1.3518   -0.1928 F   0  0  0  0  0  0  0  0  0  0  0  0
    3.0286    0.2749   -1.8275 F   0  0  0  0  0  0  0  0  0  0  0  0
    3.6616    0.7255    0.3464 F   0  0  0  0  0  0  0  0  0  0  0  0
    1.4172    0.2849    2.2335 F   0  0  0  0  0  0  0  0  0  0  0  0
  1  7  1  0  0  0  0
  2  8  1  6  0  0  0
  2  1  1  0  0  0  0
  2 20  1  0  0  0  0
  3 16  1  6  0  0  0
  3  2  1  0  0  0  0
  4  5  2  0  0  0  0
  4  3  1  0  0  0  0
  5  6  1  0  0  0  0
  6 11  1  0  0  0  0
  6  1  2  0  0  0  0
  9  4  1  0  0  0  0
 10  5  1  0  0  0  0
 11 12  2  0  0  0  0
 13 11  2  0  0  0  0
 14 15  3  0  0  0  0
 16 17  1  0  0  0  0
 16 19  1  0  0  0  0
 18 16  1  0  0  0  0
M  RAD  1   3   2
M  END
