Coordinates from ORCA-job p-NO2-Ph-N2-BF4-B3LYPG-6-31G_dp-scan-d09-49-n400
 OpenBabel08281821153D

 20 19  0  0  1  0  0  0  0  0999 V2000
   -0.8594    0.5386    1.4216 C   0  0  0  0  0  0  0  0  0  0  0  0
    0.5388    0.1394    1.1689 C   0  0  1  0  0  0  0  0  0  0  0  0
    1.1780    0.4776   -0.1151 C   0  0  2  0  0  0  0  0  0  0  0  0
    0.3007    0.8137   -1.1669 C   0  0  0  0  0  0  0  0  0  0  0  0
   -1.0473    1.0279   -0.9515 C   0  0  0  0  0  0  0  0  0  0  0  0
   -1.6136    0.8889    0.3508 C   0  0  0  0  0  0  0  0  0  0  0  0
   -1.2742    0.4727    2.4214 H   0  0  0  0  0  0  0  0  0  0  0  0
    0.4246   -0.9527    0.8975 H   0  0  0  0  0  0  0  0  0  0  0  0
    0.7371    0.9669   -2.1482 H   0  0  0  0  0  0  0  0  0  0  0  0
   -1.7099    1.3291   -1.7564 H   0  0  0  0  0  0  0  0  0  0  0  0
   -3.0465    1.2102    0.5429 N   0  0  0  0  0  0  0  0  0  0  0  0
   -3.5035    1.0731    1.6714 O   0  0  0  0  0  0  0  0  0  0  0  0
   -3.6644    1.5894   -0.4469 O   0  0  0  0  0  0  0  0  0  0  0  0
    1.3404    3.1317    1.8287 N   0  0  0  0  0  0  0  0  0  0  0  0
    1.8660    3.9378    2.3715 N   0  0  0  0  0  0  0  0  0  0  0  0
    2.7980    0.1451   -0.3828 B   0  0  0  0  0  0  0  0  0  0  0  0
    2.8507   -1.2256   -0.0978 F   0  0  0  0  0  0  0  0  0  0  0  0
    3.0395    0.4174   -1.7240 F   0  0  0  0  0  0  0  0  0  0  0  0
    3.5656    0.9118    0.4695 F   0  0  0  0  0  0  0  0  0  0  0  0
    1.3224    0.2258    2.2784 F   0  0  0  0  0  0  0  0  0  0  0  0
  1  7  1  0  0  0  0
  2  8  1  6  0  0  0
  2  1  1  0  0  0  0
  2 20  1  0  0  0  0
  3 16  1  6  0  0  0
  3  2  1  0  0  0  0
  4  5  2  0  0  0  0
  4  3  1  0  0  0  0
  5  6  1  0  0  0  0
  6 11  1  0  0  0  0
  6  1  2  0  0  0  0
  9  4  1  0  0  0  0
 10  5  1  0  0  0  0
 11 12  2  0  0  0  0
 13 11  2  0  0  0  0
 14 15  3  0  0  0  0
 16 17  1  0  0  0  0
 16 19  1  0  0  0  0
 18 16  1  0  0  0  0
M  RAD  1   3   2
M  END
