Coordinates from ORCA-job p-NO2-Ph-N2-BF4-B3LYPG-6-31G_dp-scan-d09-49-n400
 OpenBabel08281821153D

 20 19  0  0  1  0  0  0  0  0999 V2000
   -0.9521    0.5136    1.4179 C   0  0  0  0  0  0  0  0  0  0  0  0
    0.4669    0.1737    1.1970 C   0  0  1  0  0  0  0  0  0  0  0  0
    1.1251    0.5508   -0.0663 C   0  0  2  0  0  0  0  0  0  0  0  0
    0.2625    0.8576   -1.1380 C   0  0  0  0  0  0  0  0  0  0  0  0
   -1.0986    1.0168   -0.9552 C   0  0  0  0  0  0  0  0  0  0  0  0
   -1.6919    0.8441    0.3305 C   0  0  0  0  0  0  0  0  0  0  0  0
   -1.3888    0.4210    2.4062 H   0  0  0  0  0  0  0  0  0  0  0  0
    0.3978   -0.9175    0.9032 H   0  0  0  0  0  0  0  0  0  0  0  0
    0.7166    1.0366   -2.1068 H   0  0  0  0  0  0  0  0  0  0  0  0
   -1.7519    1.2988   -1.7746 H   0  0  0  0  0  0  0  0  0  0  0  0
   -3.1417    1.1047    0.4876 N   0  0  0  0  0  0  0  0  0  0  0  0
   -3.6219    0.9337    1.6014 O   0  0  0  0  0  0  0  0  0  0  0  0
   -3.7480    1.4693   -0.5146 O   0  0  0  0  0  0  0  0  0  0  0  0
    1.5822    3.1456    1.8987 N   0  0  0  0  0  0  0  0  0  0  0  0
    2.6756    3.3061    1.8952 N   0  0  0  0  0  0  0  0  0  0  0  0
    2.7735    0.3300   -0.2798 B   0  0  0  0  0  0  0  0  0  0  0  0
    2.9477   -1.0120    0.0658 F   0  0  0  0  0  0  0  0  0  0  0  0
    3.0306    0.5744   -1.6230 F   0  0  0  0  0  0  0  0  0  0  0  0
    3.4410    1.2048    0.5607 F   0  0  0  0  0  0  0  0  0  0  0  0
    1.2182    0.2667    2.3271 F   0  0  0  0  0  0  0  0  0  0  0  0
  1  7  1  0  0  0  0
  2  8  1  6  0  0  0
  2  1  1  0  0  0  0
  2 20  1  0  0  0  0
  3 16  1  6  0  0  0
  3  2  1  0  0  0  0
  4  5  2  0  0  0  0
  4  3  1  0  0  0  0
  5  6  1  0  0  0  0
  6 11  1  0  0  0  0
  6  1  2  0  0  0  0
  9  4  1  0  0  0  0
 10  5  1  0  0  0  0
 11 12  2  0  0  0  0
 13 11  2  0  0  0  0
 15 14  3  0  0  0  0
 16 17  1  0  0  0  0
 16 19  1  0  0  0  0
 18 16  1  0  0  0  0
M  RAD  1   3   2
M  END
