Coordinates from ORCA-job p-NO2-Ph-N2-BF4-B3LYPG-6-31G_dp-scan-d09-49-n400
 OpenBabel08281821153D

 20 19  0  0  1  0  0  0  0  0999 V2000
   -0.7654    0.6203    1.4074 C   0  0  0  0  0  0  0  0  0  0  0  0
    0.6165    0.1816    1.1347 C   0  0  1  0  0  0  0  0  0  0  0  0
    1.2215    0.4306   -0.1867 C   0  0  2  0  0  0  0  0  0  0  0  0
    0.3183    0.7349   -1.2255 C   0  0  0  0  0  0  0  0  0  0  0  0
   -1.0179    0.9911   -0.9804 C   0  0  0  0  0  0  0  0  0  0  0  0
   -1.5465    0.9291    0.3428 C   0  0  0  0  0  0  0  0  0  0  0  0
   -1.1494    0.6168    2.4214 H   0  0  0  0  0  0  0  0  0  0  0  0
    0.4737   -0.9210    0.9252 H   0  0  0  0  0  0  0  0  0  0  0  0
    0.7260    0.8255   -2.2268 H   0  0  0  0  0  0  0  0  0  0  0  0
   -1.6985    1.2662   -1.7796 H   0  0  0  0  0  0  0  0  0  0  0  0
   -2.9658    1.2901    0.5615 N   0  0  0  0  0  0  0  0  0  0  0  0
   -3.3892    1.2215    1.7093 O   0  0  0  0  0  0  0  0  0  0  0  0
   -3.6073    1.6308   -0.4273 O   0  0  0  0  0  0  0  0  0  0  0  0
    0.9773    3.2641    2.1705 N   0  0  0  0  0  0  0  0  0  0  0  0
    1.3290    4.0965    2.8064 N   0  0  0  0  0  0  0  0  0  0  0  0
    2.8140    0.0098   -0.4997 B   0  0  0  0  0  0  0  0  0  0  0  0
    2.7917   -1.3554   -0.1759 F   0  0  0  0  0  0  0  0  0  0  0  0
    3.0180    0.2281   -1.8567 F   0  0  0  0  0  0  0  0  0  0  0  0
    3.6601    0.7465    0.2994 F   0  0  0  0  0  0  0  0  0  0  0  0
    1.4368    0.3115    2.2130 F   0  0  0  0  0  0  0  0  0  0  0  0
  1  7  1  0  0  0  0
  2  8  1  6  0  0  0
  2  1  1  0  0  0  0
  2 20  1  0  0  0  0
  3 16  1  6  0  0  0
  3  2  1  0  0  0  0
  4  5  2  0  0  0  0
  4  3  1  0  0  0  0
  5  6  1  0  0  0  0
  6 11  1  0  0  0  0
  6  1  2  0  0  0  0
  9  4  1  0  0  0  0
 10  5  1  0  0  0  0
 11 12  2  0  0  0  0
 13 11  2  0  0  0  0
 14 15  3  0  0  0  0
 16 17  1  0  0  0  0
 16 19  1  0  0  0  0
 18 16  1  0  0  0  0
M  RAD  1   3   2
M  END
