Coordinates from ORCA-job p-NO2-Ph-N2-BF4-B3LYPG-6-31G_dp-scan-d09-49-n400
 OpenBabel08281821153D

 20 20  0  0  1  0  0  0  0  0999 V2000
   -0.9415    0.4792    1.4426 C   0  0  0  0  0  0  0  0  0  0  0  0
    0.4924    0.0931    1.2268 C   0  0  1  0  0  0  0  0  0  0  0  0
    1.2003    0.9270    0.1354 C   0  0  1  0  0  0  0  0  0  0  0  0
    0.2764    1.1123   -1.0605 C   0  0  0  0  0  0  0  0  0  0  0  0
   -1.0588    1.0926   -0.9317 C   0  0  0  0  0  0  0  0  0  0  0  0
   -1.6557    0.8803    0.3836 C   0  0  0  0  0  0  0  0  0  0  0  0
   -1.3894    0.3423    2.4198 H   0  0  0  0  0  0  0  0  0  0  0  0
    0.5194   -0.9623    0.9130 H   0  0  0  0  0  0  0  0  0  0  0  0
    0.7368    1.3452   -2.0150 H   0  0  0  0  0  0  0  0  0  0  0  0
   -1.7202    1.2762   -1.7688 H   0  0  0  0  0  0  0  0  0  0  0  0
   -3.0965    1.1486    0.5452 N   0  0  0  0  0  0  0  0  0  0  0  0
   -3.5890    0.9981    1.6598 O   0  0  0  0  0  0  0  0  0  0  0  0
   -3.7102    1.5027   -0.4606 O   0  0  0  0  0  0  0  0  0  0  0  0
    1.4029    2.3143    0.7153 N   0  0  0  0  0  0  0  0  0  0  0  0
    2.4631    2.5968    1.2579 N   0  0  0  0  0  0  0  0  0  0  0  0
    2.5661    0.2513   -0.3244 B   0  0  0  0  0  0  0  0  0  0  0  0
    2.9428   -0.9325    0.1345 F   0  0  0  0  0  0  0  0  0  0  0  0
    3.2587    0.7920   -1.3174 F   0  0  0  0  0  0  0  0  0  0  0  0
    3.3464    1.6691    1.2616 F   0  0  0  0  0  0  0  0  0  0  0  0
    1.1990    0.1924    2.4158 F   0  0  0  0  0  0  0  0  0  0  0  0
  1  7  1  0  0  0  0
  2  8  1  6  0  0  0
  2  1  1  0  0  0  0
  2 20  1  0  0  0  0
  3 16  1  6  0  0  0
  3 14  1  0  0  0  0
  3  2  1  0  0  0  0
  4  5  2  0  0  0  0
  4  3  1  0  0  0  0
  5  6  1  0  0  0  0
  6 11  1  0  0  0  0
  6  1  2  0  0  0  0
  9  4  1  0  0  0  0
 10  5  1  0  0  0  0
 11 12  2  0  0  0  0
 13 11  2  0  0  0  0
 14 15  2  0  0  0  0
 15 19  1  0  0  0  0
 16 17  1  0  0  0  0
 18 16  1  0  0  0  0
M  END
