Coordinates from ORCA-job p-NO2-Ph-N2-BF4-B3LYPG-6-31G_dp-scan-d09-49-n400
 OpenBabel08281821153D

 20 19  0  0  1  0  0  0  0  0999 V2000
   -0.8750    0.5311    1.4202 C   0  0  0  0  0  0  0  0  0  0  0  0
    0.5261    0.1396    1.1718 C   0  0  1  0  0  0  0  0  0  0  0  0
    1.1686    0.4846   -0.1086 C   0  0  2  0  0  0  0  0  0  0  0  0
    0.2938    0.8184   -1.1633 C   0  0  0  0  0  0  0  0  0  0  0  0
   -1.0560    1.0255   -0.9525 C   0  0  0  0  0  0  0  0  0  0  0  0
   -1.6266    0.8807    0.3473 C   0  0  0  0  0  0  0  0  0  0  0  0
   -1.2935    0.4603    2.4181 H   0  0  0  0  0  0  0  0  0  0  0  0
    0.4177   -0.9521    0.8956 H   0  0  0  0  0  0  0  0  0  0  0  0
    0.7333    0.9763   -2.1424 H   0  0  0  0  0  0  0  0  0  0  0  0
   -1.7170    1.3252   -1.7593 H   0  0  0  0  0  0  0  0  0  0  0  0
   -3.0620    1.1940    0.5345 N   0  0  0  0  0  0  0  0  0  0  0  0
   -3.5227    1.0515    1.6607 O   0  0  0  0  0  0  0  0  0  0  0  0
   -3.6779    1.5724   -0.4569 O   0  0  0  0  0  0  0  0  0  0  0  0
    1.4088    3.1228    1.8140 N   0  0  0  0  0  0  0  0  0  0  0  0
    1.9813    3.9097    2.3372 N   0  0  0  0  0  0  0  0  0  0  0  0
    2.7930    0.1676   -0.3678 B   0  0  0  0  0  0  0  0  0  0  0  0
    2.8625   -1.2008   -0.0779 F   0  0  0  0  0  0  0  0  0  0  0  0
    3.0380    0.4390   -1.7086 F   0  0  0  0  0  0  0  0  0  0  0  0
    3.5458    0.9477    0.4859 F   0  0  0  0  0  0  0  0  0  0  0  0
    1.3047    0.2251    2.2847 F   0  0  0  0  0  0  0  0  0  0  0  0
  1  7  1  0  0  0  0
  2  8  1  6  0  0  0
  2  1  1  0  0  0  0
  2 20  1  0  0  0  0
  3 16  1  6  0  0  0
  3  2  1  0  0  0  0
  4  5  2  0  0  0  0
  4  3  1  0  0  0  0
  5  6  1  0  0  0  0
  6 11  1  0  0  0  0
  6  1  2  0  0  0  0
  9  4  1  0  0  0  0
 10  5  1  0  0  0  0
 11 12  2  0  0  0  0
 13 11  2  0  0  0  0
 14 15  3  0  0  0  0
 16 17  1  0  0  0  0
 16 19  1  0  0  0  0
 18 16  1  0  0  0  0
M  RAD  1   3   2
M  END
