Coordinates from ORCA-job p-NO2-Ph-N2-BF4-B3LYPG-6-31G_dp-scan-d09-49-n400
 OpenBabel08281821153D

 20 20  0  0  1  0  0  0  0  0999 V2000
   -0.9219    0.4960    1.4458 C   0  0  0  0  0  0  0  0  0  0  0  0
    0.5105    0.1129    1.2287 C   0  0  1  0  0  0  0  0  0  0  0  0
    1.2134    0.9293    0.1213 C   0  0  1  0  0  0  0  0  0  0  0  0
    0.2802    1.1087   -1.0693 C   0  0  0  0  0  0  0  0  0  0  0  0
   -1.0546    1.0825   -0.9355 C   0  0  0  0  0  0  0  0  0  0  0  0
   -1.6435    0.8743    0.3831 C   0  0  0  0  0  0  0  0  0  0  0  0
   -1.3653    0.3739    2.4269 H   0  0  0  0  0  0  0  0  0  0  0  0
    0.5407   -0.9528    0.9541 H   0  0  0  0  0  0  0  0  0  0  0  0
    0.7312    1.3603   -2.0239 H   0  0  0  0  0  0  0  0  0  0  0  0
   -1.7199    1.2723   -1.7679 H   0  0  0  0  0  0  0  0  0  0  0  0
   -3.0858    1.1311    0.5487 N   0  0  0  0  0  0  0  0  0  0  0  0
   -3.5722    0.9915    1.6679 O   0  0  0  0  0  0  0  0  0  0  0  0
   -3.7096    1.4644   -0.4582 O   0  0  0  0  0  0  0  0  0  0  0  0
    1.4366    2.3475    0.6524 N   0  0  0  0  0  0  0  0  0  0  0  0
    2.4979    2.5495    1.2913 N   0  0  0  0  0  0  0  0  0  0  0  0
    2.5248    0.1999   -0.3864 B   0  0  0  0  0  0  0  0  0  0  0  0
    2.8313   -1.0366   -0.0209 F   0  0  0  0  0  0  0  0  0  0  0  0
    3.3219    0.8021   -1.2579 F   0  0  0  0  0  0  0  0  0  0  0  0
    3.2003    1.7649    1.4162 F   0  0  0  0  0  0  0  0  0  0  0  0
    1.2270    0.2471    2.4165 F   0  0  0  0  0  0  0  0  0  0  0  0
  1  7  1  0  0  0  0
  2  8  1  6  0  0  0
  2  1  1  0  0  0  0
  2 20  1  0  0  0  0
  3 16  1  6  0  0  0
  3 14  1  0  0  0  0
  3  2  1  0  0  0  0
  4  5  2  0  0  0  0
  4  3  1  0  0  0  0
  5  6  1  0  0  0  0
  6 11  1  0  0  0  0
  6  1  2  0  0  0  0
  9  4  1  0  0  0  0
 10  5  1  0  0  0  0
 11 12  2  0  0  0  0
 13 11  2  0  0  0  0
 14 15  2  0  0  0  0
 15 19  1  0  0  0  0
 16 17  1  0  0  0  0
 18 16  1  0  0  0  0
M  END
