Coordinates from ORCA-job p-NO2-Ph-N2-BF4-B3LYPG-6-31G_dp-scan-d09-49-n400
 OpenBabel08281821153D

 20 19  0  0  1  0  0  0  0  0999 V2000
   -0.9343    0.4780    1.4230 C   0  0  0  0  0  0  0  0  0  0  0  0
    0.4764    0.1115    1.1897 C   0  0  1  0  0  0  0  0  0  0  0  0
    1.1387    0.5086   -0.0652 C   0  0  2  0  0  0  0  0  0  0  0  0
    0.2807    0.8632   -1.1266 C   0  0  0  0  0  0  0  0  0  0  0  0
   -1.0759    1.0447   -0.9365 C   0  0  0  0  0  0  0  0  0  0  0  0
   -1.6693    0.8523    0.3470 C   0  0  0  0  0  0  0  0  0  0  0  0
   -1.3711    0.3695    2.4097 H   0  0  0  0  0  0  0  0  0  0  0  0
    0.3846   -0.9713    0.8733 H   0  0  0  0  0  0  0  0  0  0  0  0
    0.7368    1.0607   -2.0908 H   0  0  0  0  0  0  0  0  0  0  0  0
   -1.7254    1.3607   -1.7463 H   0  0  0  0  0  0  0  0  0  0  0  0
   -3.1123    1.1406    0.5154 N   0  0  0  0  0  0  0  0  0  0  0  0
   -3.5922    0.9592    1.6278 O   0  0  0  0  0  0  0  0  0  0  0  0
   -3.7144    1.5398   -0.4763 O   0  0  0  0  0  0  0  0  0  0  0  0
    1.6071    3.0639    1.6978 N   0  0  0  0  0  0  0  0  0  0  0  0
    2.3752    3.8071    1.9768 N   0  0  0  0  0  0  0  0  0  0  0  0
    2.7794    0.2545   -0.2846 B   0  0  0  0  0  0  0  0  0  0  0  0
    2.9053   -1.1152   -0.0330 F   0  0  0  0  0  0  0  0  0  0  0  0
    3.0555    0.5809   -1.6071 F   0  0  0  0  0  0  0  0  0  0  0  0
    3.4656    1.0439    0.6196 F   0  0  0  0  0  0  0  0  0  0  0  0
    1.2326    0.1659    2.3190 F   0  0  0  0  0  0  0  0  0  0  0  0
  1  7  1  0  0  0  0
  2  8  1  6  0  0  0
  2  1  1  0  0  0  0
  2 20  1  0  0  0  0
  3 16  1  6  0  0  0
  3  2  1  0  0  0  0
  4  5  2  0  0  0  0
  4  3  1  0  0  0  0
  5  6  1  0  0  0  0
  6 11  1  0  0  0  0
  6  1  2  0  0  0  0
  9  4  1  0  0  0  0
 10  5  1  0  0  0  0
 11 12  2  0  0  0  0
 13 11  2  0  0  0  0
 14 15  3  0  0  0  0
 16 17  1  0  0  0  0
 16 19  1  0  0  0  0
 18 16  1  0  0  0  0
M  RAD  1   3   2
M  END
