Coordinates from ORCA-job p-NO2-Ph-N2-BF4-B3LYPG-6-31G_dp-scan-d09-49-n400
 OpenBabel08281821153D

 20 19  0  0  1  0  0  0  0  0999 V2000
   -0.7539    0.6551    1.3903 C   0  0  0  0  0  0  0  0  0  0  0  0
    0.6257    0.2087    1.1184 C   0  0  1  0  0  0  0  0  0  0  0  0
    1.2188    0.4178   -0.2152 C   0  0  2  0  0  0  0  0  0  0  0  0
    0.3062    0.6894   -1.2547 C   0  0  0  0  0  0  0  0  0  0  0  0
   -1.0278    0.9530   -1.0055 C   0  0  0  0  0  0  0  0  0  0  0  0
   -1.5444    0.9317    0.3237 C   0  0  0  0  0  0  0  0  0  0  0  0
   -1.1286    0.6827    2.4073 H   0  0  0  0  0  0  0  0  0  0  0  0
    0.4801   -0.8992    0.9402 H   0  0  0  0  0  0  0  0  0  0  0  0
    0.7050    0.7495   -2.2618 H   0  0  0  0  0  0  0  0  0  0  0  0
   -1.7157    1.2035   -1.8066 H   0  0  0  0  0  0  0  0  0  0  0  0
   -2.9619    1.2988    0.5442 N   0  0  0  0  0  0  0  0  0  0  0  0
   -3.3750    1.2643    1.6972 O   0  0  0  0  0  0  0  0  0  0  0  0
   -3.6123    1.6096   -0.4486 O   0  0  0  0  0  0  0  0  0  0  0  0
    0.9487    3.2901    2.3593 N   0  0  0  0  0  0  0  0  0  0  0  0
    1.3439    4.1046    2.9928 N   0  0  0  0  0  0  0  0  0  0  0  0
    2.8119   -0.0009   -0.5265 B   0  0  0  0  0  0  0  0  0  0  0  0
    2.8089   -1.3536   -0.1551 F   0  0  0  0  0  0  0  0  0  0  0  0
    3.0032    0.1726   -1.8918 F   0  0  0  0  0  0  0  0  0  0  0  0
    3.6546    0.7739    0.2402 F   0  0  0  0  0  0  0  0  0  0  0  0
    1.4558    0.3668    2.1850 F   0  0  0  0  0  0  0  0  0  0  0  0
  1  7  1  0  0  0  0
  2  8  1  6  0  0  0
  2  1  1  0  0  0  0
  2 20  1  0  0  0  0
  3 16  1  6  0  0  0
  3  2  1  0  0  0  0
  4  5  2  0  0  0  0
  4  3  1  0  0  0  0
  5  6  1  0  0  0  0
  6 11  1  0  0  0  0
  6  1  2  0  0  0  0
  9  4  1  0  0  0  0
 10  5  1  0  0  0  0
 11 12  2  0  0  0  0
 13 11  2  0  0  0  0
 14 15  3  0  0  0  0
 16 17  1  0  0  0  0
 16 19  1  0  0  0  0
 18 16  1  0  0  0  0
M  RAD  1   3   2
M  END
