Coordinates from ORCA-job p-NO2-Ph-N2-BF4-B3LYPG-6-31G_dp-scan-d09-49-n400
 OpenBabel08281821153D

 20 19  0  0  1  0  0  0  0  0999 V2000
   -0.9234    0.5055    1.4185 C   0  0  0  0  0  0  0  0  0  0  0  0
    0.4876    0.1412    1.1853 C   0  0  1  0  0  0  0  0  0  0  0  0
    1.1424    0.5156   -0.0804 C   0  0  2  0  0  0  0  0  0  0  0  0
    0.2776    0.8461   -1.1438 C   0  0  0  0  0  0  0  0  0  0  0  0
   -1.0790    1.0265   -0.9502 C   0  0  0  0  0  0  0  0  0  0  0  0
   -1.6655    0.8554    0.3390 C   0  0  0  0  0  0  0  0  0  0  0  0
   -1.3545    0.4148    2.4094 H   0  0  0  0  0  0  0  0  0  0  0  0
    0.3986   -0.9474    0.8891 H   0  0  0  0  0  0  0  0  0  0  0  0
    0.7283    1.0250   -2.1142 H   0  0  0  0  0  0  0  0  0  0  0  0
   -1.7335    1.3247   -1.7629 H   0  0  0  0  0  0  0  0  0  0  0  0
   -3.1090    1.1408    0.5090 N   0  0  0  0  0  0  0  0  0  0  0  0
   -3.5834    0.9743    1.6261 O   0  0  0  0  0  0  0  0  0  0  0  0
   -3.7168    1.5217   -0.4864 O   0  0  0  0  0  0  0  0  0  0  0  0
    1.5034    3.1082    1.8650 N   0  0  0  0  0  0  0  0  0  0  0  0
    2.4139    3.7090    2.0393 N   0  0  0  0  0  0  0  0  0  0  0  0
    2.7806    0.2517   -0.3112 B   0  0  0  0  0  0  0  0  0  0  0  0
    2.9005   -1.1109   -0.0188 F   0  0  0  0  0  0  0  0  0  0  0  0
    3.0405    0.5346   -1.6466 F   0  0  0  0  0  0  0  0  0  0  0  0
    3.4852    1.0638    0.5571 F   0  0  0  0  0  0  0  0  0  0  0  0
    1.2494    0.2181    2.3098 F   0  0  0  0  0  0  0  0  0  0  0  0
  1  7  1  0  0  0  0
  2  8  1  6  0  0  0
  2  1  1  0  0  0  0
  2 20  1  0  0  0  0
  3 16  1  6  0  0  0
  3  2  1  0  0  0  0
  4  5  2  0  0  0  0
  4  3  1  0  0  0  0
  5  6  1  0  0  0  0
  6 11  1  0  0  0  0
  6  1  2  0  0  0  0
  9  4  1  0  0  0  0
 10  5  1  0  0  0  0
 11 12  2  0  0  0  0
 13 11  2  0  0  0  0
 14 15  3  0  0  0  0
 16 17  1  0  0  0  0
 16 19  1  0  0  0  0
 18 16  1  0  0  0  0
M  RAD  1   3   2
M  END
