Coordinates from ORCA-job p-NO2-Ph-N2-BF4-B3LYPG-6-31G_dp-scan-d09-49-n400
 OpenBabel08281821153D

 20 20  0  0  1  0  0  0  0  0999 V2000
   -1.0009    0.4391    1.4484 C   0  0  0  0  0  0  0  0  0  0  0  0
    0.4532    0.1204    1.2727 C   0  0  1  0  0  0  0  0  0  0  0  0
    1.1675    0.9536    0.2098 C   0  0  1  0  0  0  0  0  0  0  0  0
    0.2972    1.2041   -0.9816 C   0  0  0  0  0  0  0  0  0  0  0  0
   -1.0451    1.1464   -0.8998 C   0  0  0  0  0  0  0  0  0  0  0  0
   -1.6867    0.8673    0.3792 C   0  0  0  0  0  0  0  0  0  0  0  0
   -1.4823    0.2404    2.3989 H   0  0  0  0  0  0  0  0  0  0  0  0
    0.5439   -0.9209    0.9195 H   0  0  0  0  0  0  0  0  0  0  0  0
    0.7981    1.4542   -1.9094 H   0  0  0  0  0  0  0  0  0  0  0  0
   -1.6803    1.3305   -1.7575 H   0  0  0  0  0  0  0  0  0  0  0  0
   -3.1415    1.0883    0.4921 N   0  0  0  0  0  0  0  0  0  0  0  0
   -3.6711    0.8729    1.5780 O   0  0  0  0  0  0  0  0  0  0  0  0
   -3.7221    1.4757   -0.5203 O   0  0  0  0  0  0  0  0  0  0  0  0
    1.4835    2.3283    0.9102 N   0  0  0  0  0  0  0  0  0  0  0  0
    2.5465    2.6553    1.1823 N   0  0  0  0  0  0  0  0  0  0  0  0
    2.7284    0.4350   -0.1331 B   0  0  0  0  0  0  0  0  0  0  0  0
    2.9381   -0.8322    0.3320 F   0  0  0  0  0  0  0  0  0  0  0  0
    3.0388    0.6382   -1.4510 F   0  0  0  0  0  0  0  0  0  0  0  0
    3.5627    1.3994    0.6796 F   0  0  0  0  0  0  0  0  0  0  0  0
    1.1149    0.2228    2.4830 F   0  0  0  0  0  0  0  0  0  0  0  0
  1  7  1  0  0  0  0
  2  8  1  6  0  0  0
  2  1  1  0  0  0  0
  2 20  1  0  0  0  0
  3 16  1  6  0  0  0
  3 14  1  0  0  0  0
  3  2  1  0  0  0  0
  4  5  2  0  0  0  0
  4  3  1  0  0  0  0
  5  6  1  0  0  0  0
  6 11  1  0  0  0  0
  6  1  2  0  0  0  0
  9  4  1  0  0  0  0
 10  5  1  0  0  0  0
 11 12  2  0  0  0  0
 13 11  2  0  0  0  0
 14 15  2  0  0  0  0
 16 17  1  0  0  0  0
 16 19  1  0  0  0  0
 18 16  1  0  0  0  0
M  RAD  1  15   2
M  END
