Coordinates from ORCA-job p-NO2-Ph-N2-BF4-B3LYPG-6-31G_dp-scan-d09-49-n400
 OpenBabel08281821153D

 20 19  0  0  1  0  0  0  0  0999 V2000
   -0.9458    0.5172    1.4174 C   0  0  0  0  0  0  0  0  0  0  0  0
    0.4724    0.1757    1.1946 C   0  0  1  0  0  0  0  0  0  0  0  0
    1.1285    0.5485   -0.0712 C   0  0  2  0  0  0  0  0  0  0  0  0
    0.2640    0.8541   -1.1418 C   0  0  0  0  0  0  0  0  0  0  0  0
   -1.0966    1.0146   -0.9566 C   0  0  0  0  0  0  0  0  0  0  0  0
   -1.6875    0.8452    0.3306 C   0  0  0  0  0  0  0  0  0  0  0  0
   -1.3805    0.4280    2.4069 H   0  0  0  0  0  0  0  0  0  0  0  0
    0.4030   -0.9163    0.9045 H   0  0  0  0  0  0  0  0  0  0  0  0
    0.7164    1.0305   -2.1119 H   0  0  0  0  0  0  0  0  0  0  0  0
   -1.7513    1.2951   -1.7754 H   0  0  0  0  0  0  0  0  0  0  0  0
   -3.1368    1.1070    0.4899 N   0  0  0  0  0  0  0  0  0  0  0  0
   -3.6148    0.9402    1.6053 O   0  0  0  0  0  0  0  0  0  0  0  0
   -3.7447    1.4705   -0.5118 O   0  0  0  0  0  0  0  0  0  0  0  0
    1.5583    3.1506    1.9088 N   0  0  0  0  0  0  0  0  0  0  0  0
    2.6409    3.3688    1.9433 N   0  0  0  0  0  0  0  0  0  0  0  0
    2.7742    0.3143   -0.2899 B   0  0  0  0  0  0  0  0  0  0  0  0
    2.9286   -1.0347    0.0413 F   0  0  0  0  0  0  0  0  0  0  0  0
    3.0315    0.5679   -1.6314 F   0  0  0  0  0  0  0  0  0  0  0  0
    3.4566    1.1692    0.5577 F   0  0  0  0  0  0  0  0  0  0  0  0
    1.2266    0.2723    2.3226 F   0  0  0  0  0  0  0  0  0  0  0  0
  1  7  1  0  0  0  0
  2  8  1  6  0  0  0
  2  1  1  0  0  0  0
  2 20  1  0  0  0  0
  3 16  1  6  0  0  0
  3  2  1  0  0  0  0
  4  5  2  0  0  0  0
  4  3  1  0  0  0  0
  5  6  1  0  0  0  0
  6 11  1  0  0  0  0
  6  1  2  0  0  0  0
  9  4  1  0  0  0  0
 10  5  1  0  0  0  0
 11 12  2  0  0  0  0
 13 11  2  0  0  0  0
 14 15  3  0  0  0  0
 16 17  1  0  0  0  0
 16 19  1  0  0  0  0
 18 16  1  0  0  0  0
M  RAD  1   3   2
M  END
