Coordinates from ORCA-job p-NO2-Ph-N2-BF4-B3LYPG-6-31G_dp-scan-d09-49-n400
 OpenBabel08281821153D

 20 20  0  0  1  0  0  0  0  0999 V2000
   -0.9546    0.4658    1.4415 C   0  0  0  0  0  0  0  0  0  0  0  0
    0.4812    0.0822    1.2298 C   0  0  1  0  0  0  0  0  0  0  0  0
    1.1936    0.9258    0.1504 C   0  0  1  0  0  0  0  0  0  0  0  0
    0.2788    1.1225   -1.0487 C   0  0  0  0  0  0  0  0  0  0  0  0
   -1.0572    1.1038   -0.9270 C   0  0  0  0  0  0  0  0  0  0  0  0
   -1.6618    0.8811    0.3833 C   0  0  0  0  0  0  0  0  0  0  0  0
   -1.4085    0.3174    2.4143 H   0  0  0  0  0  0  0  0  0  0  0  0
    0.5118   -0.9690    0.9020 H   0  0  0  0  0  0  0  0  0  0  0  0
    0.7471    1.3539   -1.9994 H   0  0  0  0  0  0  0  0  0  0  0  0
   -1.7140    1.2899   -1.7672 H   0  0  0  0  0  0  0  0  0  0  0  0
   -3.1030    1.1513    0.5393 N   0  0  0  0  0  0  0  0  0  0  0  0
   -3.6024    0.9893    1.6491 O   0  0  0  0  0  0  0  0  0  0  0  0
   -3.7093    1.5189   -0.4661 O   0  0  0  0  0  0  0  0  0  0  0  0
    1.3936    2.2995    0.7567 N   0  0  0  0  0  0  0  0  0  0  0  0
    2.4643    2.6100    1.2339 N   0  0  0  0  0  0  0  0  0  0  0  0
    2.5861    0.2769   -0.2858 B   0  0  0  0  0  0  0  0  0  0  0  0
    2.9857   -0.8853    0.2115 F   0  0  0  0  0  0  0  0  0  0  0  0
    3.2200    0.7644   -1.3465 F   0  0  0  0  0  0  0  0  0  0  0  0
    3.4103    1.6499    1.1398 F   0  0  0  0  0  0  0  0  0  0  0  0
    1.1814    0.1704    2.4220 F   0  0  0  0  0  0  0  0  0  0  0  0
  1  7  1  0  0  0  0
  2  8  1  6  0  0  0
  2  1  1  0  0  0  0
  2 20  1  0  0  0  0
  3 16  1  6  0  0  0
  3 14  1  0  0  0  0
  3  2  1  0  0  0  0
  4  5  2  0  0  0  0
  4  3  1  0  0  0  0
  5  6  1  0  0  0  0
  6 11  1  0  0  0  0
  6  1  2  0  0  0  0
  9  4  1  0  0  0  0
 10  5  1  0  0  0  0
 11 12  2  0  0  0  0
 13 11  2  0  0  0  0
 14 15  1  0  0  0  0
 16 17  1  0  0  0  0
 18 16  1  0  0  0  0
 19 15  1  0  0  0  0
M  RAD  2  14   2  15   2
M  END
