Coordinates from ORCA-job p-NO2-Ph-N2-BF4-B3LYPG-6-31G_dp-scan-d09-49-n400
 OpenBabel08281821153D

 20 19  0  0  1  0  0  0  0  0999 V2000
   -0.9516    0.5138    1.4178 C   0  0  0  0  0  0  0  0  0  0  0  0
    0.4674    0.1737    1.1967 C   0  0  1  0  0  0  0  0  0  0  0  0
    1.1253    0.5505   -0.0668 C   0  0  2  0  0  0  0  0  0  0  0  0
    0.2626    0.8571   -1.1385 C   0  0  0  0  0  0  0  0  0  0  0  0
   -1.0985    1.0163   -0.9554 C   0  0  0  0  0  0  0  0  0  0  0  0
   -1.6915    0.8439    0.3304 C   0  0  0  0  0  0  0  0  0  0  0  0
   -1.3881    0.4216    2.4062 H   0  0  0  0  0  0  0  0  0  0  0  0
    0.3983   -0.9175    0.9033 H   0  0  0  0  0  0  0  0  0  0  0  0
    0.7165    1.0359   -2.1073 H   0  0  0  0  0  0  0  0  0  0  0  0
   -1.7520    1.2981   -1.7747 H   0  0  0  0  0  0  0  0  0  0  0  0
   -3.1413    1.1045    0.4877 N   0  0  0  0  0  0  0  0  0  0  0  0
   -3.6211    0.9350    1.6020 O   0  0  0  0  0  0  0  0  0  0  0  0
   -3.7476    1.4700   -0.5142 O   0  0  0  0  0  0  0  0  0  0  0  0
    1.5801    3.1458    1.8996 N   0  0  0  0  0  0  0  0  0  0  0  0
    2.6727    3.3115    1.8996 N   0  0  0  0  0  0  0  0  0  0  0  0
    2.7735    0.3288   -0.2807 B   0  0  0  0  0  0  0  0  0  0  0  0
    2.9463   -1.0138    0.0637 F   0  0  0  0  0  0  0  0  0  0  0  0
    3.0309    0.5741   -1.6236 F   0  0  0  0  0  0  0  0  0  0  0  0
    3.4421    1.2021    0.5606 F   0  0  0  0  0  0  0  0  0  0  0  0
    1.2191    0.2671    2.3265 F   0  0  0  0  0  0  0  0  0  0  0  0
  1  7  1  0  0  0  0
  2  8  1  6  0  0  0
  2  1  1  0  0  0  0
  2 20  1  0  0  0  0
  3 16  1  6  0  0  0
  3  2  1  0  0  0  0
  4  5  2  0  0  0  0
  4  3  1  0  0  0  0
  5  6  1  0  0  0  0
  6 11  1  0  0  0  0
  6  1  2  0  0  0  0
  9  4  1  0  0  0  0
 10  5  1  0  0  0  0
 11 12  2  0  0  0  0
 13 11  2  0  0  0  0
 14 15  3  0  0  0  0
 16 17  1  0  0  0  0
 16 19  1  0  0  0  0
 18 16  1  0  0  0  0
M  RAD  1   3   2
M  END
