Coordinates from ORCA-job p-NO2-Ph-N2-BF4-B3LYPG-6-31G_dp-scan-d09-49-n400
 OpenBabel08281821153D

 20 19  0  0  1  0  0  0  0  0999 V2000
   -0.9838    0.4860    1.4297 C   0  0  0  0  0  0  0  0  0  0  0  0
    0.4411    0.1621    1.2225 C   0  0  1  0  0  0  0  0  0  0  0  0
    1.1134    0.5895   -0.0164 C   0  0  2  0  0  0  0  0  0  0  0  0
    0.2677    0.9088   -1.0962 C   0  0  0  0  0  0  0  0  0  0  0  0
   -1.0982    1.0502   -0.9309 C   0  0  0  0  0  0  0  0  0  0  0  0
   -1.7090    0.8413    0.3402 C   0  0  0  0  0  0  0  0  0  0  0  0
   -1.4355    0.3605    2.4076 H   0  0  0  0  0  0  0  0  0  0  0  0
    0.3837   -0.9211    0.8975 H   0  0  0  0  0  0  0  0  0  0  0  0
    0.7340    1.1187   -2.0528 H   0  0  0  0  0  0  0  0  0  0  0  0
   -1.7410    1.3474   -1.7532 H   0  0  0  0  0  0  0  0  0  0  0  0
   -3.1631    1.0878    0.4818 N   0  0  0  0  0  0  0  0  0  0  0  0
   -3.6580    0.8867    1.5840 O   0  0  0  0  0  0  0  0  0  0  0  0
   -3.7567    1.4732   -0.5200 O   0  0  0  0  0  0  0  0  0  0  0  0
    1.6730    3.0252    1.5978 N   0  0  0  0  0  0  0  0  0  0  0  0
    2.7785    2.9155    1.5720 N   0  0  0  0  0  0  0  0  0  0  0  0
    2.7707    0.4232   -0.1972 B   0  0  0  0  0  0  0  0  0  0  0  0
    3.0192   -0.8877    0.1973 F   0  0  0  0  0  0  0  0  0  0  0  0
    3.0518    0.6543   -1.5350 F   0  0  0  0  0  0  0  0  0  0  0  0
    3.3808    1.3709    0.6387 F   0  0  0  0  0  0  0  0  0  0  0  0
    1.1742    0.2260    2.3656 F   0  0  0  0  0  0  0  0  0  0  0  0
  1  7  1  0  0  0  0
  2  8  1  6  0  0  0
  2  1  1  0  0  0  0
  2 20  1  0  0  0  0
  3 16  1  6  0  0  0
  3  2  1  0  0  0  0
  4  5  2  0  0  0  0
  4  3  1  0  0  0  0
  5  6  1  0  0  0  0
  6 11  1  0  0  0  0
  6  1  2  0  0  0  0
  9  4  1  0  0  0  0
 10  5  1  0  0  0  0
 11 12  2  0  0  0  0
 13 11  2  0  0  0  0
 15 14  3  0  0  0  0
 16 17  1  0  0  0  0
 16 19  1  0  0  0  0
 18 16  1  0  0  0  0
M  RAD  1   3   2
M  END
