Coordinates from ORCA-job p-NO2-Ph-N2-BF4-B3LYPG-6-31G_dp-scan-d09-49-n400
 OpenBabel08281821153D

 20 19  0  0  1  0  0  0  0  0999 V2000
   -0.8578    0.5396    1.4218 C   0  0  0  0  0  0  0  0  0  0  0  0
    0.5403    0.1404    1.1689 C   0  0  1  0  0  0  0  0  0  0  0  0
    1.1792    0.4775   -0.1156 C   0  0  2  0  0  0  0  0  0  0  0  0
    0.3016    0.8135   -1.1672 C   0  0  0  0  0  0  0  0  0  0  0  0
   -1.0463    1.0282   -0.9514 C   0  0  0  0  0  0  0  0  0  0  0  0
   -1.6122    0.8896    0.3511 C   0  0  0  0  0  0  0  0  0  0  0  0
   -1.2724    0.4741    2.4217 H   0  0  0  0  0  0  0  0  0  0  0  0
    0.4262   -0.9518    0.8979 H   0  0  0  0  0  0  0  0  0  0  0  0
    0.7378    0.9660   -2.1487 H   0  0  0  0  0  0  0  0  0  0  0  0
   -1.7090    1.3293   -1.7562 H   0  0  0  0  0  0  0  0  0  0  0  0
   -3.0451    1.2109    0.5434 N   0  0  0  0  0  0  0  0  0  0  0  0
   -3.5019    1.0740    1.6719 O   0  0  0  0  0  0  0  0  0  0  0  0
   -3.6632    1.5898   -0.4464 O   0  0  0  0  0  0  0  0  0  0  0  0
    1.3333    3.1351    1.8326 N   0  0  0  0  0  0  0  0  0  0  0  0
    1.8544    3.9430    2.3772 N   0  0  0  0  0  0  0  0  0  0  0  0
    2.7985    0.1419   -0.3850 B   0  0  0  0  0  0  0  0  0  0  0  0
    2.8471   -1.2295   -0.1014 F   0  0  0  0  0  0  0  0  0  0  0  0
    3.0388    0.4145   -1.7264 F   0  0  0  0  0  0  0  0  0  0  0  0
    3.5697    0.9049    0.4667 F   0  0  0  0  0  0  0  0  0  0  0  0
    1.3242    0.2276    2.2782 F   0  0  0  0  0  0  0  0  0  0  0  0
  1  7  1  0  0  0  0
  2  8  1  6  0  0  0
  2  1  1  0  0  0  0
  2 20  1  0  0  0  0
  3 16  1  6  0  0  0
  3  2  1  0  0  0  0
  4  5  2  0  0  0  0
  4  3  1  0  0  0  0
  5  6  1  0  0  0  0
  6 11  1  0  0  0  0
  6  1  2  0  0  0  0
  9  4  1  0  0  0  0
 10  5  1  0  0  0  0
 11 12  2  0  0  0  0
 13 11  2  0  0  0  0
 14 15  3  0  0  0  0
 16 17  1  0  0  0  0
 16 19  1  0  0  0  0
 18 16  1  0  0  0  0
M  RAD  1   3   2
M  END
