Coordinates from ORCA-job p-NO2-Ph-N2-BF4-B3LYPG-6-31G_dp-scan-d09-49-n400
 OpenBabel08281821153D

 20 19  0  0  1  0  0  0  0  0999 V2000
   -0.8069    0.5739    1.4201 C   0  0  0  0  0  0  0  0  0  0  0  0
    0.5822    0.1528    1.1550 C   0  0  1  0  0  0  0  0  0  0  0  0
    1.2064    0.4534   -0.1462 C   0  0  2  0  0  0  0  0  0  0  0  0
    0.3177    0.7845   -1.1897 C   0  0  0  0  0  0  0  0  0  0  0  0
   -1.0240    1.0222   -0.9581 C   0  0  0  0  0  0  0  0  0  0  0  0
   -1.5730    0.9134    0.3541 C   0  0  0  0  0  0  0  0  0  0  0  0
   -1.2073    0.5330    2.4271 H   0  0  0  0  0  0  0  0  0  0  0  0
    0.4509   -0.9433    0.9087 H   0  0  0  0  0  0  0  0  0  0  0  0
    0.7408    0.9119   -2.1804 H   0  0  0  0  0  0  0  0  0  0  0  0
   -1.6941    1.3186   -1.7586 H   0  0  0  0  0  0  0  0  0  0  0  0
   -2.9982    1.2576    0.5615 N   0  0  0  0  0  0  0  0  0  0  0  0
   -3.4399    1.1470    1.6989 O   0  0  0  0  0  0  0  0  0  0  0  0
   -3.6260    1.6271   -0.4258 O   0  0  0  0  0  0  0  0  0  0  0  0
    1.1168    3.1937    1.9647 N   0  0  0  0  0  0  0  0  0  0  0  0
    1.5314    4.0327    2.5520 N   0  0  0  0  0  0  0  0  0  0  0  0
    2.8105    0.0670   -0.4434 B   0  0  0  0  0  0  0  0  0  0  0  0
    2.8116   -1.3051   -0.1528 F   0  0  0  0  0  0  0  0  0  0  0  0
    3.0319    0.3222   -1.7914 F   0  0  0  0  0  0  0  0  0  0  0  0
    3.6285    0.8018    0.3865 F   0  0  0  0  0  0  0  0  0  0  0  0
    1.3837    0.2540    2.2506 F   0  0  0  0  0  0  0  0  0  0  0  0
  1  7  1  0  0  0  0
  2  8  1  6  0  0  0
  2  1  1  0  0  0  0
  2 20  1  0  0  0  0
  3 16  1  6  0  0  0
  3  2  1  0  0  0  0
  4  5  2  0  0  0  0
  4  3  1  0  0  0  0
  5  6  1  0  0  0  0
  6 11  1  0  0  0  0
  6  1  2  0  0  0  0
  9  4  1  0  0  0  0
 10  5  1  0  0  0  0
 11 12  2  0  0  0  0
 13 11  2  0  0  0  0
 14 15  3  0  0  0  0
 16 17  1  0  0  0  0
 16 19  1  0  0  0  0
 18 16  1  0  0  0  0
M  RAD  1   3   2
M  END
