Coordinates from ORCA-job p-NO2-Ph-N2-BF4-B3LYPG-6-31G_dp-scan-d09-49-n400
 OpenBabel08281821153D

 20 19  0  0  1  0  0  0  0  0999 V2000
   -0.8229    0.5594    1.4221 C   0  0  0  0  0  0  0  0  0  0  0  0
    0.5677    0.1412    1.1590 C   0  0  1  0  0  0  0  0  0  0  0  0
    1.1972    0.4571   -0.1357 C   0  0  2  0  0  0  0  0  0  0  0  0
    0.3129    0.7945   -1.1810 C   0  0  0  0  0  0  0  0  0  0  0  0
   -1.0302    1.0271   -0.9535 C   0  0  0  0  0  0  0  0  0  0  0  0
   -1.5845    0.9073    0.3556 C   0  0  0  0  0  0  0  0  0  0  0  0
   -1.2275    0.5096    2.4269 H   0  0  0  0  0  0  0  0  0  0  0  0
    0.4379   -0.9525    0.9013 H   0  0  0  0  0  0  0  0  0  0  0  0
    0.7405    0.9325   -2.1684 H   0  0  0  0  0  0  0  0  0  0  0  0
   -1.6975    1.3287   -1.7544 H   0  0  0  0  0  0  0  0  0  0  0  0
   -3.0110    1.2485    0.5597 N   0  0  0  0  0  0  0  0  0  0  0  0
   -3.4572    1.1294    1.6946 O   0  0  0  0  0  0  0  0  0  0  0  0
   -3.6350    1.6249   -0.4274 O   0  0  0  0  0  0  0  0  0  0  0  0
    1.1790    3.1630    1.9002 N   0  0  0  0  0  0  0  0  0  0  0  0
    1.6250    3.9963    2.4725 N   0  0  0  0  0  0  0  0  0  0  0  0
    2.8084    0.0942   -0.4202 B   0  0  0  0  0  0  0  0  0  0  0  0
    2.8346   -1.2774   -0.1326 F   0  0  0  0  0  0  0  0  0  0  0  0
    3.0388    0.3578   -1.7651 F   0  0  0  0  0  0  0  0  0  0  0  0
    3.6021    0.8450    0.4207 F   0  0  0  0  0  0  0  0  0  0  0  0
    1.3647    0.2321    2.2586 F   0  0  0  0  0  0  0  0  0  0  0  0
  1  7  1  0  0  0  0
  2  8  1  6  0  0  0
  2  1  1  0  0  0  0
  2 20  1  0  0  0  0
  3 16  1  6  0  0  0
  3  2  1  0  0  0  0
  4  5  2  0  0  0  0
  4  3  1  0  0  0  0
  5  6  1  0  0  0  0
  6 11  1  0  0  0  0
  6  1  2  0  0  0  0
  9  4  1  0  0  0  0
 10  5  1  0  0  0  0
 11 12  2  0  0  0  0
 13 11  2  0  0  0  0
 14 15  3  0  0  0  0
 16 17  1  0  0  0  0
 16 19  1  0  0  0  0
 18 16  1  0  0  0  0
M  RAD  1   3   2
M  END
