Coordinates from ORCA-job p-NO2-Ph-N2-BF4-B3LYPG-6-31G_dp-scan-d09-49-n400
 OpenBabel08281821153D

 20 19  0  0  1  0  0  0  0  0999 V2000
   -0.9477    0.5162    1.4175 C   0  0  0  0  0  0  0  0  0  0  0  0
    0.4709    0.1757    1.1954 C   0  0  1  0  0  0  0  0  0  0  0  0
    1.1276    0.5494   -0.0697 C   0  0  2  0  0  0  0  0  0  0  0  0
    0.2636    0.8552   -1.1407 C   0  0  0  0  0  0  0  0  0  0  0  0
   -1.0972    1.0151   -0.9563 C   0  0  0  0  0  0  0  0  0  0  0  0
   -1.6888    0.8446    0.3304 C   0  0  0  0  0  0  0  0  0  0  0  0
   -1.3831    0.4259    2.4066 H   0  0  0  0  0  0  0  0  0  0  0  0
    0.4022   -0.9161    0.9039 H   0  0  0  0  0  0  0  0  0  0  0  0
    0.7166    1.0321   -2.1103 H   0  0  0  0  0  0  0  0  0  0  0  0
   -1.7515    1.2959   -1.7753 H   0  0  0  0  0  0  0  0  0  0  0  0
   -3.1384    1.1057    0.4889 N   0  0  0  0  0  0  0  0  0  0  0  0
   -3.6170    0.9382    1.6040 O   0  0  0  0  0  0  0  0  0  0  0  0
   -3.7457    1.4699   -0.5128 O   0  0  0  0  0  0  0  0  0  0  0  0
    1.5652    3.1507    1.9080 N   0  0  0  0  0  0  0  0  0  0  0  0
    2.6514    3.3526    1.9315 N   0  0  0  0  0  0  0  0  0  0  0  0
    2.7740    0.3182   -0.2876 B   0  0  0  0  0  0  0  0  0  0  0  0
    2.9333   -1.0290    0.0478 F   0  0  0  0  0  0  0  0  0  0  0  0
    3.0304    0.5686   -1.6299 F   0  0  0  0  0  0  0  0  0  0  0  0
    3.4532    1.1782    0.5571 F   0  0  0  0  0  0  0  0  0  0  0  0
    1.2238    0.2716    2.3243 F   0  0  0  0  0  0  0  0  0  0  0  0
  1  7  1  0  0  0  0
  2  8  1  6  0  0  0
  2  1  1  0  0  0  0
  2 20  1  0  0  0  0
  3 16  1  6  0  0  0
  3  2  1  0  0  0  0
  4  5  2  0  0  0  0
  4  3  1  0  0  0  0
  5  6  1  0  0  0  0
  6 11  1  0  0  0  0
  6  1  2  0  0  0  0
  9  4  1  0  0  0  0
 10  5  1  0  0  0  0
 11 12  2  0  0  0  0
 13 11  2  0  0  0  0
 14 15  3  0  0  0  0
 16 17  1  0  0  0  0
 16 19  1  0  0  0  0
 18 16  1  0  0  0  0
M  RAD  1   3   2
M  END
