Coordinates from ORCA-job p-NO2-Ph-N2-BF4-B3LYPG-6-31G_dp-scan-d09-49-n400
 OpenBabel08281821153D

 20 19  0  0  1  0  0  0  0  0999 V2000
   -0.9306    0.4848    1.4228 C   0  0  0  0  0  0  0  0  0  0  0  0
    0.4811    0.1220    1.1904 C   0  0  1  0  0  0  0  0  0  0  0  0
    1.1417    0.5146   -0.0666 C   0  0  2  0  0  0  0  0  0  0  0  0
    0.2820    0.8626   -1.1291 C   0  0  0  0  0  0  0  0  0  0  0  0
   -1.0748    1.0415   -0.9388 C   0  0  0  0  0  0  0  0  0  0  0  0
   -1.6672    0.8524    0.3456 C   0  0  0  0  0  0  0  0  0  0  0  0
   -1.3666    0.3792    2.4102 H   0  0  0  0  0  0  0  0  0  0  0  0
    0.3930   -0.9625    0.8797 H   0  0  0  0  0  0  0  0  0  0  0  0
    0.7372    1.0562   -2.0945 H   0  0  0  0  0  0  0  0  0  0  0  0
   -1.7255    1.3525   -1.7497 H   0  0  0  0  0  0  0  0  0  0  0  0
   -3.1110    1.1372    0.5134 N   0  0  0  0  0  0  0  0  0  0  0  0
   -3.5903    0.9572    1.6264 O   0  0  0  0  0  0  0  0  0  0  0  0
   -3.7145    1.5317   -0.4793 O   0  0  0  0  0  0  0  0  0  0  0  0
    1.5958    3.0782    1.7228 N   0  0  0  0  0  0  0  0  0  0  0  0
    2.3574    3.8228    2.0156 N   0  0  0  0  0  0  0  0  0  0  0  0
    2.7789    0.2449   -0.2949 B   0  0  0  0  0  0  0  0  0  0  0  0
    2.8811   -1.1285   -0.0467 F   0  0  0  0  0  0  0  0  0  0  0  0
    3.0515    0.5684   -1.6186 F   0  0  0  0  0  0  0  0  0  0  0  0
    3.4865    1.0186    0.6046 F   0  0  0  0  0  0  0  0  0  0  0  0
    1.2375    0.1847    2.3196 F   0  0  0  0  0  0  0  0  0  0  0  0
  1  7  1  0  0  0  0
  2  8  1  6  0  0  0
  2  1  1  0  0  0  0
  2 20  1  0  0  0  0
  3 16  1  6  0  0  0
  3  2  1  0  0  0  0
  4  5  2  0  0  0  0
  4  3  1  0  0  0  0
  5  6  1  0  0  0  0
  6 11  1  0  0  0  0
  6  1  2  0  0  0  0
  9  4  1  0  0  0  0
 10  5  1  0  0  0  0
 11 12  2  0  0  0  0
 13 11  2  0  0  0  0
 14 15  3  0  0  0  0
 16 17  1  0  0  0  0
 16 19  1  0  0  0  0
 18 16  1  0  0  0  0
M  RAD  1   3   2
M  END
