Coordinates from ORCA-job p-NO2-Ph-N2-BF4-B3LYPG-6-31G_dp-scan-d09-49-n400
 OpenBabel08281821153D

 20 19  0  0  1  0  0  0  0  0999 V2000
   -0.8952    0.5210    1.4173 C   0  0  0  0  0  0  0  0  0  0  0  0
    0.5086    0.1358    1.1736 C   0  0  1  0  0  0  0  0  0  0  0  0
    1.1553    0.4893   -0.1021 C   0  0  2  0  0  0  0  0  0  0  0  0
    0.2838    0.8215   -1.1601 C   0  0  0  0  0  0  0  0  0  0  0  0
   -1.0677    1.0225   -0.9547 C   0  0  0  0  0  0  0  0  0  0  0  0
   -1.6432    0.8717    0.3424 C   0  0  0  0  0  0  0  0  0  0  0  0
   -1.3180    0.4442    2.4130 H   0  0  0  0  0  0  0  0  0  0  0  0
    0.4039   -0.9547    0.8902 H   0  0  0  0  0  0  0  0  0  0  0  0
    0.7272    0.9841   -2.1367 H   0  0  0  0  0  0  0  0  0  0  0  0
   -1.7266    1.3215   -1.7635 H   0  0  0  0  0  0  0  0  0  0  0  0
   -3.0808    1.1784    0.5242 N   0  0  0  0  0  0  0  0  0  0  0  0
   -3.5459    1.0303    1.6479 O   0  0  0  0  0  0  0  0  0  0  0  0
   -3.6938    1.5575   -0.4687 O   0  0  0  0  0  0  0  0  0  0  0  0
    1.5013    3.0987    1.7994 N   0  0  0  0  0  0  0  0  0  0  0  0
    2.1263    3.8611    2.2982 N   0  0  0  0  0  0  0  0  0  0  0  0
    2.7869    0.2006   -0.3483 B   0  0  0  0  0  0  0  0  0  0  0  0
    2.8976   -1.1563   -0.0276 F   0  0  0  0  0  0  0  0  0  0  0  0
    3.0314    0.4506   -1.6935 F   0  0  0  0  0  0  0  0  0  0  0  0
    3.5107    1.0247    0.4913 F   0  0  0  0  0  0  0  0  0  0  0  0
    1.2814    0.2162    2.2906 F   0  0  0  0  0  0  0  0  0  0  0  0
  1  7  1  0  0  0  0
  2  8  1  6  0  0  0
  2  1  1  0  0  0  0
  2 20  1  0  0  0  0
  3 16  1  6  0  0  0
  3  2  1  0  0  0  0
  4  5  2  0  0  0  0
  4  3  1  0  0  0  0
  5  6  1  0  0  0  0
  6 11  1  0  0  0  0
  6  1  2  0  0  0  0
  9  4  1  0  0  0  0
 10  5  1  0  0  0  0
 11 12  2  0  0  0  0
 13 11  2  0  0  0  0
 14 15  3  0  0  0  0
 16 17  1  0  0  0  0
 16 19  1  0  0  0  0
 18 16  1  0  0  0  0
M  RAD  1   3   2
M  END
