Coordinates from ORCA-job p-NO2-Ph-N2-BF4-B3LYPG-6-31G_dp-scan-d09-49-n400
 OpenBabel08281821153D

 20 20  0  0  1  0  0  0  0  0999 V2000
   -0.9972    0.4315    1.4437 C   0  0  0  0  0  0  0  0  0  0  0  0
    0.4540    0.0973    1.2621 C   0  0  1  0  0  0  0  0  0  0  0  0
    1.1716    0.9468    0.2082 C   0  0  1  0  0  0  0  0  0  0  0  0
    0.2953    1.1930   -0.9897 C   0  0  0  0  0  0  0  0  0  0  0  0
   -1.0453    1.1477   -0.9031 C   0  0  0  0  0  0  0  0  0  0  0  0
   -1.6828    0.8723    0.3804 C   0  0  0  0  0  0  0  0  0  0  0  0
   -1.4766    0.2347    2.3955 H   0  0  0  0  0  0  0  0  0  0  0  0
    0.5341   -0.9438    0.9086 H   0  0  0  0  0  0  0  0  0  0  0  0
    0.7942    1.4376   -1.9202 H   0  0  0  0  0  0  0  0  0  0  0  0
   -1.6827    1.3368   -1.7579 H   0  0  0  0  0  0  0  0  0  0  0  0
   -3.1340    1.1097    0.5023 N   0  0  0  0  0  0  0  0  0  0  0  0
   -3.6613    0.8949    1.5896 O   0  0  0  0  0  0  0  0  0  0  0  0
   -3.7155    1.5090   -0.5051 O   0  0  0  0  0  0  0  0  0  0  0  0
    1.4515    2.3057    0.8938 N   0  0  0  0  0  0  0  0  0  0  0  0
    2.5302    2.6348    1.1609 N   0  0  0  0  0  0  0  0  0  0  0  0
    2.7047    0.4207   -0.1399 B   0  0  0  0  0  0  0  0  0  0  0  0
    2.9896   -0.8062    0.3672 F   0  0  0  0  0  0  0  0  0  0  0  0
    3.0622    0.6323   -1.4369 F   0  0  0  0  0  0  0  0  0  0  0  0
    3.5322    1.4729    0.7007 F   0  0  0  0  0  0  0  0  0  0  0  0
    1.1187    0.1908    2.4727 F   0  0  0  0  0  0  0  0  0  0  0  0
  1  7  1  0  0  0  0
  2  8  1  6  0  0  0
  2  1  1  0  0  0  0
  2 20  1  0  0  0  0
  3 16  1  6  0  0  0
  3 14  1  0  0  0  0
  3  2  1  0  0  0  0
  4  5  2  0  0  0  0
  4  3  1  0  0  0  0
  5  6  1  0  0  0  0
  6 11  1  0  0  0  0
  6  1  2  0  0  0  0
  9  4  1  0  0  0  0
 10  5  1  0  0  0  0
 11 12  2  0  0  0  0
 13 11  2  0  0  0  0
 14 15  2  0  0  0  0
 16 17  1  0  0  0  0
 16 19  1  0  0  0  0
 18 16  1  0  0  0  0
M  RAD  1  15   2
M  END
