Coordinates from ORCA-job p-NO2-Ph-N2-BF4-B3LYPG-6-31G_dp-scan-d09-49-n400
 OpenBabel08281821153D

 20 19  0  0  1  0  0  0  0  0999 V2000
   -0.7856    0.5909    1.4178 C   0  0  0  0  0  0  0  0  0  0  0  0
    0.6014    0.1660    1.1491 C   0  0  1  0  0  0  0  0  0  0  0  0
    1.2182    0.4479   -0.1603 C   0  0  2  0  0  0  0  0  0  0  0  0
    0.3236    0.7732   -1.2006 C   0  0  0  0  0  0  0  0  0  0  0  0
   -1.0161    1.0165   -0.9630 C   0  0  0  0  0  0  0  0  0  0  0  0
   -1.5578    0.9201    0.3529 C   0  0  0  0  0  0  0  0  0  0  0  0
   -1.1798    0.5612    2.4276 H   0  0  0  0  0  0  0  0  0  0  0  0
    0.4680   -0.9328    0.9159 H   0  0  0  0  0  0  0  0  0  0  0  0
    0.7406    0.8892   -2.1954 H   0  0  0  0  0  0  0  0  0  0  0  0
   -1.6902    1.3069   -1.7624 H   0  0  0  0  0  0  0  0  0  0  0  0
   -2.9816    1.2672    0.5652 N   0  0  0  0  0  0  0  0  0  0  0  0
   -3.4170    1.1672    1.7061 O   0  0  0  0  0  0  0  0  0  0  0  0
   -3.6145    1.6287   -0.4218 O   0  0  0  0  0  0  0  0  0  0  0  0
    1.0349    3.2429    2.0409 N   0  0  0  0  0  0  0  0  0  0  0  0
    1.4127    4.0878    2.6448 N   0  0  0  0  0  0  0  0  0  0  0  0
    2.8124    0.0303   -0.4711 B   0  0  0  0  0  0  0  0  0  0  0  0
    2.7750   -1.3447   -0.1904 F   0  0  0  0  0  0  0  0  0  0  0  0
    3.0312    0.2879   -1.8187 F   0  0  0  0  0  0  0  0  0  0  0  0
    3.6575    0.7328    0.3581 F   0  0  0  0  0  0  0  0  0  0  0  0
    1.4100    0.2795    2.2383 F   0  0  0  0  0  0  0  0  0  0  0  0
  1  7  1  0  0  0  0
  2  8  1  6  0  0  0
  2  1  1  0  0  0  0
  2 20  1  0  0  0  0
  3 16  1  6  0  0  0
  3  2  1  0  0  0  0
  4  5  2  0  0  0  0
  4  3  1  0  0  0  0
  5  6  1  0  0  0  0
  6 11  1  0  0  0  0
  6  1  2  0  0  0  0
  9  4  1  0  0  0  0
 10  5  1  0  0  0  0
 11 12  2  0  0  0  0
 13 11  2  0  0  0  0
 14 15  3  0  0  0  0
 16 17  1  0  0  0  0
 16 19  1  0  0  0  0
 18 16  1  0  0  0  0
M  RAD  1   3   2
M  END
