Coordinates from ORCA-job p-NO2-Ph-N2-BF4-B3LYPG-6-31G_dp-scan-d09-49-n400
 OpenBabel08281821153D

 20 19  0  0  1  0  0  0  0  0999 V2000
   -0.8202    0.5625    1.4217 C   0  0  0  0  0  0  0  0  0  0  0  0
    0.5711    0.1466    1.1594 C   0  0  1  0  0  0  0  0  0  0  0  0
    1.2000    0.4594   -0.1366 C   0  0  2  0  0  0  0  0  0  0  0  0
    0.3148    0.7948   -1.1818 C   0  0  0  0  0  0  0  0  0  0  0  0
   -1.0285    1.0269   -0.9543 C   0  0  0  0  0  0  0  0  0  0  0  0
   -1.5825    0.9079    0.3550 C   0  0  0  0  0  0  0  0  0  0  0  0
   -1.2247    0.5132    2.4267 H   0  0  0  0  0  0  0  0  0  0  0  0
    0.4436   -0.9480    0.9045 H   0  0  0  0  0  0  0  0  0  0  0  0
    0.7418    0.9308   -2.1697 H   0  0  0  0  0  0  0  0  0  0  0  0
   -1.6961    1.3269   -1.7555 H   0  0  0  0  0  0  0  0  0  0  0  0
   -3.0096    1.2469    0.5587 N   0  0  0  0  0  0  0  0  0  0  0  0
   -3.4557    1.1273    1.6935 O   0  0  0  0  0  0  0  0  0  0  0  0
   -3.6340    1.6221   -0.4285 O   0  0  0  0  0  0  0  0  0  0  0  0
    1.1687    3.1745    1.9164 N   0  0  0  0  0  0  0  0  0  0  0  0
    1.6074    4.0090    2.4924 N   0  0  0  0  0  0  0  0  0  0  0  0
    2.8082    0.0865   -0.4266 B   0  0  0  0  0  0  0  0  0  0  0  0
    2.8217   -1.2860   -0.1398 F   0  0  0  0  0  0  0  0  0  0  0  0
    3.0354    0.3480   -1.7723 F   0  0  0  0  0  0  0  0  0  0  0  0
    3.6136    0.8281    0.4107 F   0  0  0  0  0  0  0  0  0  0  0  0
    1.3678    0.2414    2.2590 F   0  0  0  0  0  0  0  0  0  0  0  0
  1  7  1  0  0  0  0
  2  8  1  6  0  0  0
  2  1  1  0  0  0  0
  2 20  1  0  0  0  0
  3 16  1  6  0  0  0
  3  2  1  0  0  0  0
  4  5  2  0  0  0  0
  4  3  1  0  0  0  0
  5  6  1  0  0  0  0
  6 11  1  0  0  0  0
  6  1  2  0  0  0  0
  9  4  1  0  0  0  0
 10  5  1  0  0  0  0
 11 12  2  0  0  0  0
 13 11  2  0  0  0  0
 14 15  3  0  0  0  0
 16 17  1  0  0  0  0
 16 19  1  0  0  0  0
 18 16  1  0  0  0  0
M  RAD  1   3   2
M  END
