Coordinates from ORCA-job p-NO2-Ph-N2-BF4-B3LYPG-6-31G_dp-scan-d09-49-n400
 OpenBabel08281821153D

 20 20  0  0  1  0  0  0  0  0999 V2000
   -0.9243    0.4938    1.4453 C   0  0  0  0  0  0  0  0  0  0  0  0
    0.5081    0.1096    1.2281 C   0  0  1  0  0  0  0  0  0  0  0  0
    1.2119    0.9285    0.1230 C   0  0  1  0  0  0  0  0  0  0  0  0
    0.2797    1.1085   -1.0684 C   0  0  0  0  0  0  0  0  0  0  0  0
   -1.0552    1.0838   -0.9351 C   0  0  0  0  0  0  0  0  0  0  0  0
   -1.6450    0.8754    0.3833 C   0  0  0  0  0  0  0  0  0  0  0  0
   -1.3681    0.3699    2.4260 H   0  0  0  0  0  0  0  0  0  0  0  0
    0.5369   -0.9547    0.9472 H   0  0  0  0  0  0  0  0  0  0  0  0
    0.7318    1.3569   -2.0233 H   0  0  0  0  0  0  0  0  0  0  0  0
   -1.7200    1.2726   -1.7681 H   0  0  0  0  0  0  0  0  0  0  0  0
   -3.0870    1.1344    0.5485 N   0  0  0  0  0  0  0  0  0  0  0  0
   -3.5740    0.9937    1.6672 O   0  0  0  0  0  0  0  0  0  0  0  0
   -3.7094    1.4707   -0.4583 O   0  0  0  0  0  0  0  0  0  0  0  0
    1.4304    2.3427    0.6616 N   0  0  0  0  0  0  0  0  0  0  0  0
    2.4918    2.5570    1.2870 N   0  0  0  0  0  0  0  0  0  0  0  0
    2.5301    0.2059   -0.3791 B   0  0  0  0  0  0  0  0  0  0  0  0
    2.8503   -1.0217    0.0031 F   0  0  0  0  0  0  0  0  0  0  0  0
    3.3115    0.8012   -1.2691 F   0  0  0  0  0  0  0  0  0  0  0  0
    3.2202    1.7530    1.3981 F   0  0  0  0  0  0  0  0  0  0  0  0
    1.2232    0.2375    2.4160 F   0  0  0  0  0  0  0  0  0  0  0  0
  1  7  1  0  0  0  0
  2  8  1  6  0  0  0
  2  1  1  0  0  0  0
  2 20  1  0  0  0  0
  3 16  1  6  0  0  0
  3 14  1  0  0  0  0
  3  2  1  0  0  0  0
  4  5  2  0  0  0  0
  4  3  1  0  0  0  0
  5  6  1  0  0  0  0
  6 11  1  0  0  0  0
  6  1  2  0  0  0  0
  9  4  1  0  0  0  0
 10  5  1  0  0  0  0
 11 12  2  0  0  0  0
 13 11  2  0  0  0  0
 14 15  2  0  0  0  0
 15 19  1  0  0  0  0
 16 17  1  0  0  0  0
 18 16  1  0  0  0  0
M  END
