Coordinates from ORCA-job p-NO2-Ph-N2-BF4-B3LYPG-6-31G_dp-scan-d09-49-n400
 OpenBabel08281821153D

 20 19  0  0  1  0  0  0  0  0999 V2000
   -0.9288    0.5048    1.4188 C   0  0  0  0  0  0  0  0  0  0  0  0
    0.4837    0.1450    1.1880 C   0  0  1  0  0  0  0  0  0  0  0  0
    1.1397    0.5219   -0.0764 C   0  0  2  0  0  0  0  0  0  0  0  0
    0.2757    0.8500   -1.1412 C   0  0  0  0  0  0  0  0  0  0  0  0
   -1.0817    1.0265   -0.9499 C   0  0  0  0  0  0  0  0  0  0  0  0
   -1.6700    0.8532    0.3382 C   0  0  0  0  0  0  0  0  0  0  0  0
   -1.3615    0.4122    2.4089 H   0  0  0  0  0  0  0  0  0  0  0  0
    0.3986   -0.9436    0.8907 H   0  0  0  0  0  0  0  0  0  0  0  0
    0.7275    1.0304   -2.1108 H   0  0  0  0  0  0  0  0  0  0  0  0
   -1.7356    1.3233   -1.7635 H   0  0  0  0  0  0  0  0  0  0  0  0
   -3.1146    1.1342    0.5058 N   0  0  0  0  0  0  0  0  0  0  0  0
   -3.5906    0.9655    1.6219 O   0  0  0  0  0  0  0  0  0  0  0  0
   -3.7218    1.5137   -0.4904 O   0  0  0  0  0  0  0  0  0  0  0  0
    1.5181    3.1057    1.8524 N   0  0  0  0  0  0  0  0  0  0  0  0
    2.4577    3.6621    2.0188 N   0  0  0  0  0  0  0  0  0  0  0  0
    2.7794    0.2635   -0.3047 B   0  0  0  0  0  0  0  0  0  0  0  0
    2.9046   -1.0976   -0.0082 F   0  0  0  0  0  0  0  0  0  0  0  0
    3.0390    0.5436   -1.6409 F   0  0  0  0  0  0  0  0  0  0  0  0
    3.4805    1.0810    0.5615 F   0  0  0  0  0  0  0  0  0  0  0  0
    1.2432    0.2235    2.3140 F   0  0  0  0  0  0  0  0  0  0  0  0
  1  7  1  0  0  0  0
  2  8  1  6  0  0  0
  2  1  1  0  0  0  0
  2 20  1  0  0  0  0
  3 16  1  6  0  0  0
  3  2  1  0  0  0  0
  4  5  2  0  0  0  0
  4  3  1  0  0  0  0
  5  6  1  0  0  0  0
  6 11  1  0  0  0  0
  6  1  2  0  0  0  0
  9  4  1  0  0  0  0
 10  5  1  0  0  0  0
 11 12  2  0  0  0  0
 13 11  2  0  0  0  0
 14 15  3  0  0  0  0
 16 17  1  0  0  0  0
 16 19  1  0  0  0  0
 18 16  1  0  0  0  0
M  RAD  1   3   2
M  END
