Coordinates from ORCA-job p-NO2-Ph-N2-BF4-B3LYPG-6-31G_dp-scan-d09-49-n400
 OpenBabel08281821153D

 20 19  0  0  1  0  0  0  0  0999 V2000
   -0.9352    0.5026    1.4195 C   0  0  0  0  0  0  0  0  0  0  0  0
    0.4785    0.1461    1.1907 C   0  0  1  0  0  0  0  0  0  0  0  0
    1.1363    0.5272   -0.0716 C   0  0  2  0  0  0  0  0  0  0  0  0
    0.2737    0.8544   -1.1377 C   0  0  0  0  0  0  0  0  0  0  0  0
   -1.0846    1.0277   -0.9487 C   0  0  0  0  0  0  0  0  0  0  0  0
   -1.6750    0.8514    0.3380 C   0  0  0  0  0  0  0  0  0  0  0  0
   -1.3696    0.4072    2.4085 H   0  0  0  0  0  0  0  0  0  0  0  0
    0.3959   -0.9422    0.8913 H   0  0  0  0  0  0  0  0  0  0  0  0
    0.7269    1.0372   -2.1061 H   0  0  0  0  0  0  0  0  0  0  0  0
   -1.7375    1.3242   -1.7632 H   0  0  0  0  0  0  0  0  0  0  0  0
   -3.1204    1.1293    0.5032 N   0  0  0  0  0  0  0  0  0  0  0  0
   -3.5981    0.9583    1.6182 O   0  0  0  0  0  0  0  0  0  0  0  0
   -3.7264    1.5094   -0.4936 O   0  0  0  0  0  0  0  0  0  0  0  0
    1.5322    3.0961    1.8318 N   0  0  0  0  0  0  0  0  0  0  0  0
    2.5061    3.5950    1.9823 N   0  0  0  0  0  0  0  0  0  0  0  0
    2.7787    0.2805   -0.2947 B   0  0  0  0  0  0  0  0  0  0  0  0
    2.9188   -1.0763    0.0121 F   0  0  0  0  0  0  0  0  0  0  0  0
    3.0384    0.5541   -1.6323 F   0  0  0  0  0  0  0  0  0  0  0  0
    3.4688    1.1126    0.5669 F   0  0  0  0  0  0  0  0  0  0  0  0
    1.2355    0.2239    2.3184 F   0  0  0  0  0  0  0  0  0  0  0  0
  1  7  1  0  0  0  0
  2  8  1  6  0  0  0
  2  1  1  0  0  0  0
  2 20  1  0  0  0  0
  3 16  1  6  0  0  0
  3  2  1  0  0  0  0
  4  5  2  0  0  0  0
  4  3  1  0  0  0  0
  5  6  1  0  0  0  0
  6 11  1  0  0  0  0
  6  1  2  0  0  0  0
  9  4  1  0  0  0  0
 10  5  1  0  0  0  0
 11 12  2  0  0  0  0
 13 11  2  0  0  0  0
 14 15  3  0  0  0  0
 16 17  1  0  0  0  0
 16 19  1  0  0  0  0
 18 16  1  0  0  0  0
M  RAD  1   3   2
M  END
