Coordinates from ORCA-job p-NO2-Ph-N2-BF4-B3LYPG-6-31G_dp-scan-d09-49-n400
 OpenBabel08281821153D

 20 19  0  0  1  0  0  0  0  0999 V2000
   -0.7967    0.5825    1.4189 C   0  0  0  0  0  0  0  0  0  0  0  0
    0.5912    0.1589    1.1520 C   0  0  1  0  0  0  0  0  0  0  0  0
    1.2117    0.4505   -0.1532 C   0  0  2  0  0  0  0  0  0  0  0  0
    0.3202    0.7778   -1.1954 C   0  0  0  0  0  0  0  0  0  0  0  0
   -1.0206    1.0185   -0.9608 C   0  0  0  0  0  0  0  0  0  0  0  0
   -1.5658    0.9167    0.3533 C   0  0  0  0  0  0  0  0  0  0  0  0
   -1.1940    0.5478    2.4273 H   0  0  0  0  0  0  0  0  0  0  0  0
    0.4584   -0.9384    0.9123 H   0  0  0  0  0  0  0  0  0  0  0  0
    0.7402    0.8992   -2.1882 H   0  0  0  0  0  0  0  0  0  0  0  0
   -1.6927    1.3116   -1.7609 H   0  0  0  0  0  0  0  0  0  0  0  0
   -2.9901    1.2633    0.5632 N   0  0  0  0  0  0  0  0  0  0  0  0
   -3.4284    1.1592    1.7026 O   0  0  0  0  0  0  0  0  0  0  0  0
   -3.6204    1.6285   -0.4240 O   0  0  0  0  0  0  0  0  0  0  0  0
    1.0771    3.2137    2.0026 N   0  0  0  0  0  0  0  0  0  0  0  0
    1.4756    4.0559    2.5966 N   0  0  0  0  0  0  0  0  0  0  0  0
    2.8116    0.0507   -0.4564 B   0  0  0  0  0  0  0  0  0  0  0  0
    2.7963   -1.3225   -0.1691 F   0  0  0  0  0  0  0  0  0  0  0  0
    3.0310    0.3066   -1.8045 F   0  0  0  0  0  0  0  0  0  0  0  0
    3.6419    0.7723    0.3723 F   0  0  0  0  0  0  0  0  0  0  0  0
    1.3965    0.2658    2.2443 F   0  0  0  0  0  0  0  0  0  0  0  0
  1  7  1  0  0  0  0
  2  8  1  6  0  0  0
  2  1  1  0  0  0  0
  2 20  1  0  0  0  0
  3 16  1  6  0  0  0
  3  2  1  0  0  0  0
  4  5  2  0  0  0  0
  4  3  1  0  0  0  0
  5  6  1  0  0  0  0
  6 11  1  0  0  0  0
  6  1  2  0  0  0  0
  9  4  1  0  0  0  0
 10  5  1  0  0  0  0
 11 12  2  0  0  0  0
 13 11  2  0  0  0  0
 14 15  3  0  0  0  0
 16 17  1  0  0  0  0
 16 19  1  0  0  0  0
 18 16  1  0  0  0  0
M  RAD  1   3   2
M  END
