Coordinates from ORCA-job p-NO2-Ph-N2-BF4-B3LYPG-6-31G_dp-scan-d09-49-n400
 OpenBabel08281821153D

 20 19  0  0  1  0  0  0  0  0999 V2000
   -0.8863    0.5245    1.4194 C   0  0  0  0  0  0  0  0  0  0  0  0
    0.5149    0.1311    1.1720 C   0  0  1  0  0  0  0  0  0  0  0  0
    1.1598    0.4824   -0.1051 C   0  0  2  0  0  0  0  0  0  0  0  0
    0.2874    0.8163   -1.1617 C   0  0  0  0  0  0  0  0  0  0  0  0
   -1.0628    1.0229   -0.9530 C   0  0  0  0  0  0  0  0  0  0  0  0
   -1.6355    0.8772    0.3460 C   0  0  0  0  0  0  0  0  0  0  0  0
   -1.3066    0.4513    2.4164 H   0  0  0  0  0  0  0  0  0  0  0  0
    0.4031   -0.9595    0.8930 H   0  0  0  0  0  0  0  0  0  0  0  0
    0.7290    0.9774   -2.1393 H   0  0  0  0  0  0  0  0  0  0  0  0
   -1.7226    1.3240   -1.7603 H   0  0  0  0  0  0  0  0  0  0  0  0
   -3.0708    1.1919    0.5314 N   0  0  0  0  0  0  0  0  0  0  0  0
   -3.5331    1.0495    1.6570 O   0  0  0  0  0  0  0  0  0  0  0  0
   -3.6851    1.5708   -0.4607 O   0  0  0  0  0  0  0  0  0  0  0  0
    1.4567    3.0922    1.7880 N   0  0  0  0  0  0  0  0  0  0  0  0
    2.0610    3.8655    2.2952 N   0  0  0  0  0  0  0  0  0  0  0  0
    2.7912    0.1937   -0.3516 B   0  0  0  0  0  0  0  0  0  0  0  0
    2.8966   -1.1681   -0.0496 F   0  0  0  0  0  0  0  0  0  0  0  0
    3.0398    0.4617   -1.6926 F   0  0  0  0  0  0  0  0  0  0  0  0
    3.5146    1.0035    0.5020 F   0  0  0  0  0  0  0  0  0  0  0  0
    1.2920    0.2105    2.2863 F   0  0  0  0  0  0  0  0  0  0  0  0
  1  7  1  0  0  0  0
  2  8  1  6  0  0  0
  2  1  1  0  0  0  0
  2 20  1  0  0  0  0
  3 16  1  6  0  0  0
  3  2  1  0  0  0  0
  4  5  2  0  0  0  0
  4  3  1  0  0  0  0
  5  6  1  0  0  0  0
  6 11  1  0  0  0  0
  6  1  2  0  0  0  0
  9  4  1  0  0  0  0
 10  5  1  0  0  0  0
 11 12  2  0  0  0  0
 13 11  2  0  0  0  0
 14 15  3  0  0  0  0
 16 17  1  0  0  0  0
 16 19  1  0  0  0  0
 18 16  1  0  0  0  0
M  RAD  1   3   2
M  END
