Coordinates from ORCA-job p-NO2-Ph-N2-BF4-B3LYPG-6-31G_dp-scan-d09-49-n400
 OpenBabel08281821153D

 20 19  0  0  1  0  0  0  0  0999 V2000
   -0.9431    0.5087    1.4198 C   0  0  0  0  0  0  0  0  0  0  0  0
    0.4731    0.1590    1.1944 C   0  0  1  0  0  0  0  0  0  0  0  0
    1.1311    0.5381   -0.0681 C   0  0  2  0  0  0  0  0  0  0  0  0
    0.2686    0.8551   -1.1371 C   0  0  0  0  0  0  0  0  0  0  0  0
   -1.0909    1.0223   -0.9510 C   0  0  0  0  0  0  0  0  0  0  0  0
   -1.6827    0.8488    0.3354 C   0  0  0  0  0  0  0  0  0  0  0  0
   -1.3784    0.4151    2.4086 H   0  0  0  0  0  0  0  0  0  0  0  0
    0.3958   -0.9308    0.8984 H   0  0  0  0  0  0  0  0  0  0  0  0
    0.7223    1.0360   -2.1057 H   0  0  0  0  0  0  0  0  0  0  0  0
   -1.7440    1.3121   -1.7679 H   0  0  0  0  0  0  0  0  0  0  0  0
   -3.1300    1.1196    0.4967 N   0  0  0  0  0  0  0  0  0  0  0  0
   -3.6088    0.9502    1.6114 O   0  0  0  0  0  0  0  0  0  0  0  0
   -3.7357    1.4937   -0.5025 O   0  0  0  0  0  0  0  0  0  0  0  0
    1.5349    3.1194    1.8499 N   0  0  0  0  0  0  0  0  0  0  0  0
    2.5960    3.4169    1.9287 N   0  0  0  0  0  0  0  0  0  0  0  0
    2.7779    0.3101   -0.2849 B   0  0  0  0  0  0  0  0  0  0  0  0
    2.9424   -1.0384    0.0410 F   0  0  0  0  0  0  0  0  0  0  0  0
    3.0363    0.5714   -1.6250 F   0  0  0  0  0  0  0  0  0  0  0  0
    3.4507    1.1674    0.5676 F   0  0  0  0  0  0  0  0  0  0  0  0
    1.2275    0.2443    2.3234 F   0  0  0  0  0  0  0  0  0  0  0  0
  1  7  1  0  0  0  0
  2  8  1  6  0  0  0
  2  1  1  0  0  0  0
  2 20  1  0  0  0  0
  3 16  1  6  0  0  0
  3  2  1  0  0  0  0
  4  5  2  0  0  0  0
  4  3  1  0  0  0  0
  5  6  1  0  0  0  0
  6 11  1  0  0  0  0
  6  1  2  0  0  0  0
  9  4  1  0  0  0  0
 10  5  1  0  0  0  0
 11 12  2  0  0  0  0
 13 11  2  0  0  0  0
 14 15  3  0  0  0  0
 16 17  1  0  0  0  0
 16 19  1  0  0  0  0
 18 16  1  0  0  0  0
M  RAD  1   3   2
M  END
