Coordinates from ORCA-job p-NO2-Ph-N2-BF4-B3LYPG-6-31G_dp-scan-d09-49-n400
 OpenBabel08281821153D

 20 19  0  0  1  0  0  0  0  0999 V2000
   -0.9380    0.5119    1.4192 C   0  0  0  0  0  0  0  0  0  0  0  0
    0.4778    0.1623    1.1929 C   0  0  1  0  0  0  0  0  0  0  0  0
    1.1342    0.5383   -0.0717 C   0  0  2  0  0  0  0  0  0  0  0  0
    0.2702    0.8543   -1.1398 C   0  0  0  0  0  0  0  0  0  0  0  0
   -1.0891    1.0215   -0.9522 C   0  0  0  0  0  0  0  0  0  0  0  0
   -1.6792    0.8496    0.3351 C   0  0  0  0  0  0  0  0  0  0  0  0
   -1.3722    0.4206    2.4087 H   0  0  0  0  0  0  0  0  0  0  0  0
    0.4015   -0.9282    0.8999 H   0  0  0  0  0  0  0  0  0  0  0  0
    0.7226    1.0333   -2.1094 H   0  0  0  0  0  0  0  0  0  0  0  0
   -1.7433    1.3098   -1.7687 H   0  0  0  0  0  0  0  0  0  0  0  0
   -3.1265    1.1199    0.4978 N   0  0  0  0  0  0  0  0  0  0  0  0
   -3.6040    0.9517    1.6133 O   0  0  0  0  0  0  0  0  0  0  0  0
   -3.7338    1.4912   -0.5014 O   0  0  0  0  0  0  0  0  0  0  0  0
    1.5219    3.1249    1.8643 N   0  0  0  0  0  0  0  0  0  0  0  0
    2.5648    3.4744    1.9678 N   0  0  0  0  0  0  0  0  0  0  0  0
    2.7778    0.2954   -0.2940 B   0  0  0  0  0  0  0  0  0  0  0  0
    2.9210   -1.0591    0.0213 F   0  0  0  0  0  0  0  0  0  0  0  0
    3.0361    0.5617   -1.6330 F   0  0  0  0  0  0  0  0  0  0  0  0
    3.4672    1.1343    0.5625 F   0  0  0  0  0  0  0  0  0  0  0  0
    1.2340    0.2510    2.3205 F   0  0  0  0  0  0  0  0  0  0  0  0
  1  7  1  0  0  0  0
  2  8  1  6  0  0  0
  2  1  1  0  0  0  0
  2 20  1  0  0  0  0
  3 16  1  6  0  0  0
  3  2  1  0  0  0  0
  4  5  2  0  0  0  0
  4  3  1  0  0  0  0
  5  6  1  0  0  0  0
  6 11  1  0  0  0  0
  6  1  2  0  0  0  0
  9  4  1  0  0  0  0
 10  5  1  0  0  0  0
 11 12  2  0  0  0  0
 13 11  2  0  0  0  0
 14 15  3  0  0  0  0
 16 17  1  0  0  0  0
 16 19  1  0  0  0  0
 18 16  1  0  0  0  0
M  RAD  1   3   2
M  END
