Coordinates from ORCA-job p-NO2-Ph-N2-BF4-B3LYPG-6-31G_dp-scan-d09-49-n400
 OpenBabel08281821153D

 20 19  0  0  1  0  0  0  0  0999 V2000
   -0.7663    0.6199    1.4076 C   0  0  0  0  0  0  0  0  0  0  0  0
    0.6152    0.1799    1.1347 C   0  0  1  0  0  0  0  0  0  0  0  0
    1.2205    0.4296   -0.1864 C   0  0  2  0  0  0  0  0  0  0  0  0
    0.3175    0.7345   -1.2252 C   0  0  0  0  0  0  0  0  0  0  0  0
   -1.0185    0.9912   -0.9802 C   0  0  0  0  0  0  0  0  0  0  0  0
   -1.5471    0.9295    0.3430 C   0  0  0  0  0  0  0  0  0  0  0  0
   -1.1504    0.6164    2.4216 H   0  0  0  0  0  0  0  0  0  0  0  0
    0.4710   -0.9224    0.9249 H   0  0  0  0  0  0  0  0  0  0  0  0
    0.7254    0.8254   -2.2264 H   0  0  0  0  0  0  0  0  0  0  0  0
   -1.6990    1.2668   -1.7794 H   0  0  0  0  0  0  0  0  0  0  0  0
   -2.9662    1.2916    0.5619 N   0  0  0  0  0  0  0  0  0  0  0  0
   -3.3896    1.2233    1.7096 O   0  0  0  0  0  0  0  0  0  0  0  0
   -3.6074    1.6327   -0.4269 O   0  0  0  0  0  0  0  0  0  0  0  0
    0.9809    3.2567    2.1640 N   0  0  0  0  0  0  0  0  0  0  0  0
    1.3336    4.0886    2.8001 N   0  0  0  0  0  0  0  0  0  0  0  0
    2.8144    0.0130   -0.4977 B   0  0  0  0  0  0  0  0  0  0  0  0
    2.7985   -1.3513   -0.1709 F   0  0  0  0  0  0  0  0  0  0  0  0
    3.0186    0.2292   -1.8550 F   0  0  0  0  0  0  0  0  0  0  0  0
    3.6562    0.7559    0.3004 F   0  0  0  0  0  0  0  0  0  0  0  0
    1.4357    0.3083    2.2131 F   0  0  0  0  0  0  0  0  0  0  0  0
  1  7  1  0  0  0  0
  2  8  1  6  0  0  0
  2  1  1  0  0  0  0
  2 20  1  0  0  0  0
  3 16  1  6  0  0  0
  3  2  1  0  0  0  0
  4  5  2  0  0  0  0
  4  3  1  0  0  0  0
  5  6  1  0  0  0  0
  6 11  1  0  0  0  0
  6  1  2  0  0  0  0
  9  4  1  0  0  0  0
 10  5  1  0  0  0  0
 11 12  2  0  0  0  0
 13 11  2  0  0  0  0
 14 15  3  0  0  0  0
 16 17  1  0  0  0  0
 16 19  1  0  0  0  0
 18 16  1  0  0  0  0
M  RAD  1   3   2
M  END
