Coordinates from ORCA-job p-NO2-Ph-N2-BF4-B3LYPG-6-31G_dp-scan-d09-49-n400
 OpenBabel08281821153D

 20 19  0  0  1  0  0  0  0  0999 V2000
   -0.9761    0.5064    1.4191 C   0  0  0  0  0  0  0  0  0  0  0  0
    0.4470    0.1781    1.2071 C   0  0  1  0  0  0  0  0  0  0  0  0
    1.1103    0.5670   -0.0494 C   0  0  2  0  0  0  0  0  0  0  0  0
    0.2543    0.8685   -1.1269 C   0  0  0  0  0  0  0  0  0  0  0  0
   -1.1096    1.0174   -0.9529 C   0  0  0  0  0  0  0  0  0  0  0  0
   -1.7104    0.8364    0.3276 C   0  0  0  0  0  0  0  0  0  0  0  0
   -1.4193    0.4058    2.4038 H   0  0  0  0  0  0  0  0  0  0  0  0
    0.3852   -0.9122    0.9064 H   0  0  0  0  0  0  0  0  0  0  0  0
    0.7133    1.0553   -2.0919 H   0  0  0  0  0  0  0  0  0  0  0  0
   -1.7591    1.2978   -1.7759 H   0  0  0  0  0  0  0  0  0  0  0  0
   -3.1631    1.0867    0.4757 N   0  0  0  0  0  0  0  0  0  0  0  0
   -3.6494    0.9088    1.5857 O   0  0  0  0  0  0  0  0  0  0  0  0
   -3.7645    1.4522   -0.5290 O   0  0  0  0  0  0  0  0  0  0  0  0
    1.7049    3.1149    1.8408 N   0  0  0  0  0  0  0  0  0  0  0  0
    2.8049    3.0463    1.7366 N   0  0  0  0  0  0  0  0  0  0  0  0
    2.7666    0.3939   -0.2400 B   0  0  0  0  0  0  0  0  0  0  0  0
    3.0036   -0.9248    0.1421 F   0  0  0  0  0  0  0  0  0  0  0  0
    3.0357    0.6252   -1.5819 F   0  0  0  0  0  0  0  0  0  0  0  0
    3.3790    1.3268    0.5935 F   0  0  0  0  0  0  0  0  0  0  0  0
    1.1897    0.2681    2.3423 F   0  0  0  0  0  0  0  0  0  0  0  0
  1  7  1  0  0  0  0
  2  8  1  6  0  0  0
  2  1  1  0  0  0  0
  2 20  1  0  0  0  0
  3 16  1  6  0  0  0
  3  2  1  0  0  0  0
  4  5  2  0  0  0  0
  4  3  1  0  0  0  0
  5  6  1  0  0  0  0
  6 11  1  0  0  0  0
  6  1  2  0  0  0  0
  9  4  1  0  0  0  0
 10  5  1  0  0  0  0
 11 12  2  0  0  0  0
 13 11  2  0  0  0  0
 15 14  3  0  0  0  0
 16 17  1  0  0  0  0
 16 19  1  0  0  0  0
 18 16  1  0  0  0  0
M  RAD  1   3   2
M  END
