Coordinates from ORCA-job p-NO2-Ph-N2-BF4-B3LYPG-6-31G_dp-scan-d09-49-n400
 OpenBabel08281821153D

 20 19  0  0  1  0  0  0  0  0999 V2000
   -0.8960    0.5205    1.4173 C   0  0  0  0  0  0  0  0  0  0  0  0
    0.5078    0.1351    1.1736 C   0  0  1  0  0  0  0  0  0  0  0  0
    1.1547    0.4890   -0.1018 C   0  0  2  0  0  0  0  0  0  0  0  0
    0.2835    0.8215   -1.1599 C   0  0  0  0  0  0  0  0  0  0  0  0
   -1.0680    1.0226   -0.9546 C   0  0  0  0  0  0  0  0  0  0  0  0
   -1.6438    0.8716    0.3423 C   0  0  0  0  0  0  0  0  0  0  0  0
   -1.3190    0.4433    2.4129 H   0  0  0  0  0  0  0  0  0  0  0  0
    0.4027   -0.9553    0.8898 H   0  0  0  0  0  0  0  0  0  0  0  0
    0.7270    0.9844   -2.1363 H   0  0  0  0  0  0  0  0  0  0  0  0
   -1.7267    1.3221   -1.7634 H   0  0  0  0  0  0  0  0  0  0  0  0
   -3.0813    1.1786    0.5240 N   0  0  0  0  0  0  0  0  0  0  0  0
   -3.5467    1.0296    1.6475 O   0  0  0  0  0  0  0  0  0  0  0  0
   -3.6942    1.5575   -0.4689 O   0  0  0  0  0  0  0  0  0  0  0  0
    1.5043    3.0967    1.7977 N   0  0  0  0  0  0  0  0  0  0  0  0
    2.1313    3.8582    2.2951 N   0  0  0  0  0  0  0  0  0  0  0  0
    2.7869    0.2023   -0.3472 B   0  0  0  0  0  0  0  0  0  0  0  0
    2.9005   -1.1539   -0.0247 F   0  0  0  0  0  0  0  0  0  0  0  0
    3.0311    0.4510   -1.6928 F   0  0  0  0  0  0  0  0  0  0  0  0
    3.5084    1.0291    0.4913 F   0  0  0  0  0  0  0  0  0  0  0  0
    1.2804    0.2148    2.2908 F   0  0  0  0  0  0  0  0  0  0  0  0
  1  7  1  0  0  0  0
  2  8  1  6  0  0  0
  2  1  1  0  0  0  0
  2 20  1  0  0  0  0
  3 16  1  6  0  0  0
  3  2  1  0  0  0  0
  4  5  2  0  0  0  0
  4  3  1  0  0  0  0
  5  6  1  0  0  0  0
  6 11  1  0  0  0  0
  6  1  2  0  0  0  0
  9  4  1  0  0  0  0
 10  5  1  0  0  0  0
 11 12  2  0  0  0  0
 13 11  2  0  0  0  0
 14 15  3  0  0  0  0
 16 17  1  0  0  0  0
 16 19  1  0  0  0  0
 18 16  1  0  0  0  0
M  RAD  1   3   2
M  END
