Coordinates from ORCA-job p-NO2-Ph-N2-BF4-B3LYPG-6-31G_dp-scan-d09-49-n400
 OpenBabel08281821153D

 20 19  0  0  1  0  0  0  0  0999 V2000
   -0.8534    0.5421    1.4220 C   0  0  0  0  0  0  0  0  0  0  0  0
    0.5440    0.1412    1.1681 C   0  0  1  0  0  0  0  0  0  0  0  0
    1.1818    0.4758   -0.1177 C   0  0  2  0  0  0  0  0  0  0  0  0
    0.3034    0.8119   -1.1686 C   0  0  0  0  0  0  0  0  0  0  0  0
   -1.0440    1.0284   -0.9515 C   0  0  0  0  0  0  0  0  0  0  0  0
   -1.6087    0.8916    0.3517 C   0  0  0  0  0  0  0  0  0  0  0  0
   -1.2669    0.4782    2.4225 H   0  0  0  0  0  0  0  0  0  0  0  0
    0.4287   -0.9513    0.8988 H   0  0  0  0  0  0  0  0  0  0  0  0
    0.7386    0.9629   -2.1507 H   0  0  0  0  0  0  0  0  0  0  0  0
   -1.7073    1.3294   -1.7559 H   0  0  0  0  0  0  0  0  0  0  0  0
   -3.0410    1.2147    0.5453 N   0  0  0  0  0  0  0  0  0  0  0  0
   -3.4966    1.0796    1.6746 O   0  0  0  0  0  0  0  0  0  0  0  0
   -3.6598    1.5934   -0.4441 O   0  0  0  0  0  0  0  0  0  0  0  0
    1.3139    3.1403    1.8403 N   0  0  0  0  0  0  0  0  0  0  0  0
    1.8241    3.9522    2.3892 N   0  0  0  0  0  0  0  0  0  0  0  0
    2.7997    0.1349   -0.3898 B   0  0  0  0  0  0  0  0  0  0  0  0
    2.8422   -1.2373   -0.1083 F   0  0  0  0  0  0  0  0  0  0  0  0
    3.0391    0.4083   -1.7311 F   0  0  0  0  0  0  0  0  0  0  0  0
    3.5757    0.8928    0.4618 F   0  0  0  0  0  0  0  0  0  0  0  0
    1.3293    0.2294    2.2763 F   0  0  0  0  0  0  0  0  0  0  0  0
  1  7  1  0  0  0  0
  2  8  1  6  0  0  0
  2  1  1  0  0  0  0
  2 20  1  0  0  0  0
  3 16  1  6  0  0  0
  3  2  1  0  0  0  0
  4  5  2  0  0  0  0
  4  3  1  0  0  0  0
  5  6  1  0  0  0  0
  6 11  1  0  0  0  0
  6  1  2  0  0  0  0
  9  4  1  0  0  0  0
 10  5  1  0  0  0  0
 11 12  2  0  0  0  0
 13 11  2  0  0  0  0
 14 15  3  0  0  0  0
 16 17  1  0  0  0  0
 16 19  1  0  0  0  0
 18 16  1  0  0  0  0
M  RAD  1   3   2
M  END
