Coordinates from ORCA-job p-NO2-Ph-N2-BF4-B3LYPG-6-31G_dp-scan-d09-49-n400
 OpenBabel08281821153D

 20 19  0  0  1  0  0  0  0  0999 V2000
   -0.9315    0.5040    1.4191 C   0  0  0  0  0  0  0  0  0  0  0  0
    0.4815    0.1455    1.1890 C   0  0  1  0  0  0  0  0  0  0  0  0
    1.1382    0.5240   -0.0746 C   0  0  2  0  0  0  0  0  0  0  0  0
    0.2747    0.8516   -1.1399 C   0  0  0  0  0  0  0  0  0  0  0  0
   -1.0831    1.0267   -0.9496 C   0  0  0  0  0  0  0  0  0  0  0  0
   -1.6721    0.8524    0.3381 C   0  0  0  0  0  0  0  0  0  0  0  0
   -1.3648    0.4105    2.4088 H   0  0  0  0  0  0  0  0  0  0  0  0
    0.3974   -0.9431    0.8911 H   0  0  0  0  0  0  0  0  0  0  0  0
    0.7270    1.0330   -2.1091 H   0  0  0  0  0  0  0  0  0  0  0  0
   -1.7366    1.3232   -1.7635 H   0  0  0  0  0  0  0  0  0  0  0  0
   -3.1171    1.1321    0.5047 N   0  0  0  0  0  0  0  0  0  0  0  0
   -3.5937    0.9629    1.6205 O   0  0  0  0  0  0  0  0  0  0  0  0
   -3.7239    1.5117   -0.4918 O   0  0  0  0  0  0  0  0  0  0  0  0
    1.5243    3.1015    1.8438 N   0  0  0  0  0  0  0  0  0  0  0  0
    2.4785    3.6343    2.0043 N   0  0  0  0  0  0  0  0  0  0  0  0
    2.7791    0.2707   -0.3005 B   0  0  0  0  0  0  0  0  0  0  0  0
    2.9105   -1.0888   -0.0003 F   0  0  0  0  0  0  0  0  0  0  0  0
    3.0391    0.5487   -1.6371 F   0  0  0  0  0  0  0  0  0  0  0  0
    3.4752    1.0940    0.5644 F   0  0  0  0  0  0  0  0  0  0  0  0
    1.2401    0.2239    2.3156 F   0  0  0  0  0  0  0  0  0  0  0  0
  1  7  1  0  0  0  0
  2  8  1  6  0  0  0
  2  1  1  0  0  0  0
  2 20  1  0  0  0  0
  3 16  1  6  0  0  0
  3  2  1  0  0  0  0
  4  5  2  0  0  0  0
  4  3  1  0  0  0  0
  5  6  1  0  0  0  0
  6 11  1  0  0  0  0
  6  1  2  0  0  0  0
  9  4  1  0  0  0  0
 10  5  1  0  0  0  0
 11 12  2  0  0  0  0
 13 11  2  0  0  0  0
 14 15  3  0  0  0  0
 16 17  1  0  0  0  0
 16 19  1  0  0  0  0
 18 16  1  0  0  0  0
M  RAD  1   3   2
M  END
