Coordinates from ORCA-job p-NO2-Ph-N2-BF4-B3LYPG-6-31G_dp-scan-d09-49-n400
 OpenBabel08281821153D

 20 19  0  0  1  0  0  0  0  0999 V2000
   -0.9811    0.4916    1.4259 C   0  0  0  0  0  0  0  0  0  0  0  0
    0.4428    0.1654    1.2165 C   0  0  1  0  0  0  0  0  0  0  0  0
    1.1123    0.5785   -0.0288 C   0  0  2  0  0  0  0  0  0  0  0  0
    0.2632    0.8935   -1.1073 C   0  0  0  0  0  0  0  0  0  0  0  0
   -1.1019    1.0391   -0.9385 C   0  0  0  0  0  0  0  0  0  0  0  0
   -1.7093    0.8394    0.3358 C   0  0  0  0  0  0  0  0  0  0  0  0
   -1.4298    0.3746    2.4062 H   0  0  0  0  0  0  0  0  0  0  0  0
    0.3823   -0.9199    0.8985 H   0  0  0  0  0  0  0  0  0  0  0  0
    0.7270    1.0956   -2.0668 H   0  0  0  0  0  0  0  0  0  0  0  0
   -1.7469    1.3319   -1.7607 H   0  0  0  0  0  0  0  0  0  0  0  0
   -3.1628    1.0884    0.4801 N   0  0  0  0  0  0  0  0  0  0  0  0
   -3.6547    0.8948    1.5849 O   0  0  0  0  0  0  0  0  0  0  0  0
   -3.7588    1.4685   -0.5224 O   0  0  0  0  0  0  0  0  0  0  0  0
    1.6845    3.0674    1.6878 N   0  0  0  0  0  0  0  0  0  0  0  0
    2.7871    2.9623    1.6268 N   0  0  0  0  0  0  0  0  0  0  0  0
    2.7697    0.4122   -0.2121 B   0  0  0  0  0  0  0  0  0  0  0  0
    3.0172   -0.8999    0.1808 F   0  0  0  0  0  0  0  0  0  0  0  0
    3.0464    0.6411   -1.5518 F   0  0  0  0  0  0  0  0  0  0  0  0
    3.3763    1.3582    0.6213 F   0  0  0  0  0  0  0  0  0  0  0  0
    1.1795    0.2361    2.3568 F   0  0  0  0  0  0  0  0  0  0  0  0
  1  7  1  0  0  0  0
  2  8  1  6  0  0  0
  2  1  1  0  0  0  0
  2 20  1  0  0  0  0
  3 16  1  6  0  0  0
  3  2  1  0  0  0  0
  4  5  2  0  0  0  0
  4  3  1  0  0  0  0
  5  6  1  0  0  0  0
  6 11  1  0  0  0  0
  6  1  2  0  0  0  0
  9  4  1  0  0  0  0
 10  5  1  0  0  0  0
 11 12  2  0  0  0  0
 13 11  2  0  0  0  0
 15 14  3  0  0  0  0
 16 17  1  0  0  0  0
 16 19  1  0  0  0  0
 18 16  1  0  0  0  0
M  RAD  1   3   2
M  END
