Coordinates from ORCA-job p-NO2-Ph-N2-BF4-B3LYPG-6-31G_dp-scan-d09-49-n400
 OpenBabel08281821153D

 20 19  0  0  1  0  0  0  0  0999 V2000
   -0.9471    0.5166    1.4175 C   0  0  0  0  0  0  0  0  0  0  0  0
    0.4714    0.1758    1.1951 C   0  0  1  0  0  0  0  0  0  0  0  0
    1.1279    0.5492   -0.0702 C   0  0  2  0  0  0  0  0  0  0  0  0
    0.2637    0.8548   -1.1410 C   0  0  0  0  0  0  0  0  0  0  0  0
   -1.0970    1.0150   -0.9564 C   0  0  0  0  0  0  0  0  0  0  0  0
   -1.6884    0.8449    0.3305 C   0  0  0  0  0  0  0  0  0  0  0  0
   -1.3822    0.4267    2.4067 H   0  0  0  0  0  0  0  0  0  0  0  0
    0.4024   -0.9161    0.9041 H   0  0  0  0  0  0  0  0  0  0  0  0
    0.7165    1.0316   -2.1108 H   0  0  0  0  0  0  0  0  0  0  0  0
   -1.7514    1.2957   -1.7753 H   0  0  0  0  0  0  0  0  0  0  0  0
   -3.1378    1.1062    0.4892 N   0  0  0  0  0  0  0  0  0  0  0  0
   -3.6164    0.9385    1.6043 O   0  0  0  0  0  0  0  0  0  0  0  0
   -3.7455    1.4698   -0.5126 O   0  0  0  0  0  0  0  0  0  0  0  0
    1.5631    3.1508    1.9084 N   0  0  0  0  0  0  0  0  0  0  0  0
    2.6481    3.3579    1.9355 N   0  0  0  0  0  0  0  0  0  0  0  0
    2.7741    0.3169   -0.2884 B   0  0  0  0  0  0  0  0  0  0  0  0
    2.9316   -1.0309    0.0456 F   0  0  0  0  0  0  0  0  0  0  0  0
    3.0307    0.5683   -1.6304 F   0  0  0  0  0  0  0  0  0  0  0  0
    3.4544    1.1751    0.5573 F   0  0  0  0  0  0  0  0  0  0  0  0
    1.2248    0.2719    2.3237 F   0  0  0  0  0  0  0  0  0  0  0  0
  1  7  1  0  0  0  0
  2  8  1  6  0  0  0
  2  1  1  0  0  0  0
  2 20  1  0  0  0  0
  3 16  1  6  0  0  0
  3  2  1  0  0  0  0
  4  5  2  0  0  0  0
  4  3  1  0  0  0  0
  5  6  1  0  0  0  0
  6 11  1  0  0  0  0
  6  1  2  0  0  0  0
  9  4  1  0  0  0  0
 10  5  1  0  0  0  0
 11 12  2  0  0  0  0
 13 11  2  0  0  0  0
 14 15  3  0  0  0  0
 16 17  1  0  0  0  0
 16 19  1  0  0  0  0
 18 16  1  0  0  0  0
M  RAD  1   3   2
M  END
