Coordinates from ORCA-job p-NO2-Ph-N2-BF4-B3LYPG-6-31G_dp-scan-d09-49-n400
 OpenBabel08281821153D

 20 19  0  0  1  0  0  0  0  0999 V2000
   -0.8562    0.5404    1.4218 C   0  0  0  0  0  0  0  0  0  0  0  0
    0.5415    0.1402    1.1684 C   0  0  1  0  0  0  0  0  0  0  0  0
    1.1800    0.4766   -0.1166 C   0  0  2  0  0  0  0  0  0  0  0  0
    0.3020    0.8127   -1.1679 C   0  0  0  0  0  0  0  0  0  0  0  0
   -1.0457    1.0280   -0.9515 C   0  0  0  0  0  0  0  0  0  0  0  0
   -1.6111    0.8902    0.3513 C   0  0  0  0  0  0  0  0  0  0  0  0
   -1.2702    0.4757    2.4220 H   0  0  0  0  0  0  0  0  0  0  0  0
    0.4267   -0.9521    0.8982 H   0  0  0  0  0  0  0  0  0  0  0  0
    0.7377    0.9649   -2.1496 H   0  0  0  0  0  0  0  0  0  0  0  0
   -1.7087    1.3290   -1.7562 H   0  0  0  0  0  0  0  0  0  0  0  0
   -3.0437    1.2125    0.5442 N   0  0  0  0  0  0  0  0  0  0  0  0
   -3.4998    1.0767    1.6732 O   0  0  0  0  0  0  0  0  0  0  0  0
   -3.6620    1.5917   -0.4453 O   0  0  0  0  0  0  0  0  0  0  0  0
    1.3268    3.1359    1.8343 N   0  0  0  0  0  0  0  0  0  0  0  0
    1.8444    3.9451    2.3802 N   0  0  0  0  0  0  0  0  0  0  0  0
    2.7987    0.1399   -0.3863 B   0  0  0  0  0  0  0  0  0  0  0  0
    2.8461   -1.2316   -0.1035 F   0  0  0  0  0  0  0  0  0  0  0  0
    3.0399    0.4133   -1.7272 F   0  0  0  0  0  0  0  0  0  0  0  0
    3.5704    0.9021    0.4664 F   0  0  0  0  0  0  0  0  0  0  0  0
    1.3261    0.2274    2.2771 F   0  0  0  0  0  0  0  0  0  0  0  0
  1  7  1  0  0  0  0
  2  8  1  6  0  0  0
  2  1  1  0  0  0  0
  2 20  1  0  0  0  0
  3 16  1  6  0  0  0
  3  2  1  0  0  0  0
  4  5  2  0  0  0  0
  4  3  1  0  0  0  0
  5  6  1  0  0  0  0
  6 11  1  0  0  0  0
  6  1  2  0  0  0  0
  9  4  1  0  0  0  0
 10  5  1  0  0  0  0
 11 12  2  0  0  0  0
 13 11  2  0  0  0  0
 14 15  3  0  0  0  0
 16 17  1  0  0  0  0
 16 19  1  0  0  0  0
 18 16  1  0  0  0  0
M  RAD  1   3   2
M  END
