Coordinates from ORCA-job p-NO2-Ph-N2-BF4-B3LYPG-6-31G_dp-scan-d09-49-n400
 OpenBabel08281821153D

 20 19  0  0  1  0  0  0  0  0999 V2000
   -0.9814    0.4912    1.4262 C   0  0  0  0  0  0  0  0  0  0  0  0
    0.4426    0.1652    1.2171 C   0  0  1  0  0  0  0  0  0  0  0  0
    1.1124    0.5796   -0.0276 C   0  0  2  0  0  0  0  0  0  0  0  0
    0.2635    0.8949   -1.1063 C   0  0  0  0  0  0  0  0  0  0  0  0
   -1.1017    1.0402   -0.9378 C   0  0  0  0  0  0  0  0  0  0  0  0
   -1.7094    0.8396    0.3362 C   0  0  0  0  0  0  0  0  0  0  0  0
   -1.4305    0.3734    2.4064 H   0  0  0  0  0  0  0  0  0  0  0  0
    0.3824   -0.9199    0.8984 H   0  0  0  0  0  0  0  0  0  0  0  0
    0.7276    1.0978   -2.0655 H   0  0  0  0  0  0  0  0  0  0  0  0
   -1.7464    1.3334   -1.7600 H   0  0  0  0  0  0  0  0  0  0  0  0
   -3.1629    1.0884    0.4802 N   0  0  0  0  0  0  0  0  0  0  0  0
   -3.6551    0.8939    1.5847 O   0  0  0  0  0  0  0  0  0  0  0  0
   -3.7587    1.4688   -0.5223 O   0  0  0  0  0  0  0  0  0  0  0  0
    1.6839    3.0623    1.6792 N   0  0  0  0  0  0  0  0  0  0  0  0
    2.7868    2.9566    1.6207 N   0  0  0  0  0  0  0  0  0  0  0  0
    2.7698    0.4137   -0.2105 B   0  0  0  0  0  0  0  0  0  0  0  0
    3.0178   -0.8983    0.1828 F   0  0  0  0  0  0  0  0  0  0  0  0
    3.0469    0.6426   -1.5500 F   0  0  0  0  0  0  0  0  0  0  0  0
    3.3763    1.3601    0.6231 F   0  0  0  0  0  0  0  0  0  0  0  0
    1.1789    0.2352    2.3577 F   0  0  0  0  0  0  0  0  0  0  0  0
  1  7  1  0  0  0  0
  2  8  1  6  0  0  0
  2  1  1  0  0  0  0
  2 20  1  0  0  0  0
  3 16  1  6  0  0  0
  3  2  1  0  0  0  0
  4  5  2  0  0  0  0
  4  3  1  0  0  0  0
  5  6  1  0  0  0  0
  6 11  1  0  0  0  0
  6  1  2  0  0  0  0
  9  4  1  0  0  0  0
 10  5  1  0  0  0  0
 11 12  2  0  0  0  0
 13 11  2  0  0  0  0
 15 14  3  0  0  0  0
 16 17  1  0  0  0  0
 16 19  1  0  0  0  0
 18 16  1  0  0  0  0
M  RAD  1   3   2
M  END
