Coordinates from ORCA-job p-NO2-Ph-N2-BF4-B3LYPG-6-31G_dp-scan-d09-49-n400
 OpenBabel08281821153D

 20 19  0  0  1  0  0  0  0  0999 V2000
   -0.9452    0.5174    1.4174 C   0  0  0  0  0  0  0  0  0  0  0  0
    0.4729    0.1755    1.1944 C   0  0  1  0  0  0  0  0  0  0  0  0
    1.1288    0.5480   -0.0715 C   0  0  2  0  0  0  0  0  0  0  0  0
    0.2642    0.8537   -1.1420 C   0  0  0  0  0  0  0  0  0  0  0  0
   -1.0963    1.0146   -0.9566 C   0  0  0  0  0  0  0  0  0  0  0  0
   -1.6870    0.8455    0.3307 C   0  0  0  0  0  0  0  0  0  0  0  0
   -1.3798    0.4285    2.4070 H   0  0  0  0  0  0  0  0  0  0  0  0
    0.4033   -0.9165    0.9046 H   0  0  0  0  0  0  0  0  0  0  0  0
    0.7165    1.0299   -2.1122 H   0  0  0  0  0  0  0  0  0  0  0  0
   -1.7511    1.2952   -1.7753 H   0  0  0  0  0  0  0  0  0  0  0  0
   -3.1362    1.1077    0.4902 N   0  0  0  0  0  0  0  0  0  0  0  0
   -3.6141    0.9409    1.6057 O   0  0  0  0  0  0  0  0  0  0  0  0
   -3.7443    1.4709   -0.5115 O   0  0  0  0  0  0  0  0  0  0  0  0
    1.5558    3.1505    1.9088 N   0  0  0  0  0  0  0  0  0  0  0  0
    2.6372    3.3742    1.9467 N   0  0  0  0  0  0  0  0  0  0  0  0
    2.7744    0.3130   -0.2907 B   0  0  0  0  0  0  0  0  0  0  0  0
    2.9277   -1.0365    0.0393 F   0  0  0  0  0  0  0  0  0  0  0  0
    3.0315    0.5675   -1.6320 F   0  0  0  0  0  0  0  0  0  0  0  0
    3.4574    1.1663    0.5575 F   0  0  0  0  0  0  0  0  0  0  0  0
    1.2272    0.2724    2.3224 F   0  0  0  0  0  0  0  0  0  0  0  0
  1  7  1  0  0  0  0
  2  8  1  6  0  0  0
  2  1  1  0  0  0  0
  2 20  1  0  0  0  0
  3 16  1  6  0  0  0
  3  2  1  0  0  0  0
  4  5  2  0  0  0  0
  4  3  1  0  0  0  0
  5  6  1  0  0  0  0
  6 11  1  0  0  0  0
  6  1  2  0  0  0  0
  9  4  1  0  0  0  0
 10  5  1  0  0  0  0
 11 12  2  0  0  0  0
 13 11  2  0  0  0  0
 14 15  3  0  0  0  0
 16 17  1  0  0  0  0
 16 19  1  0  0  0  0
 18 16  1  0  0  0  0
M  RAD  1   3   2
M  END
