Coordinates from ORCA-job p-NO2-Ph-N2-BF4-B3LYPG-6-31G_dp-scan-d09-49-n400
 OpenBabel08281821153D

 20 19  0  0  1  0  0  0  0  0999 V2000
   -0.8154    0.5664    1.4212 C   0  0  0  0  0  0  0  0  0  0  0  0
    0.5754    0.1496    1.1582 C   0  0  1  0  0  0  0  0  0  0  0  0
    1.2026    0.4584   -0.1397 C   0  0  2  0  0  0  0  0  0  0  0  0
    0.3161    0.7921   -1.1843 C   0  0  0  0  0  0  0  0  0  0  0  0
   -1.0268    1.0254   -0.9555 C   0  0  0  0  0  0  0  0  0  0  0  0
   -1.5792    0.9093    0.3547 C   0  0  0  0  0  0  0  0  0  0  0  0
   -1.2185    0.5198    2.4269 H   0  0  0  0  0  0  0  0  0  0  0  0
    0.4477   -0.9456    0.9064 H   0  0  0  0  0  0  0  0  0  0  0  0
    0.7418    0.9255   -2.1731 H   0  0  0  0  0  0  0  0  0  0  0  0
   -1.6953    1.3238   -1.7565 H   0  0  0  0  0  0  0  0  0  0  0  0
   -3.0059    1.2492    0.5595 N   0  0  0  0  0  0  0  0  0  0  0  0
   -3.4506    1.1323    1.6952 O   0  0  0  0  0  0  0  0  0  0  0  0
   -3.6314    1.6224   -0.4277 O   0  0  0  0  0  0  0  0  0  0  0  0
    1.1512    3.1848    1.9332 N   0  0  0  0  0  0  0  0  0  0  0  0
    1.5801    4.0214    2.5135 N   0  0  0  0  0  0  0  0  0  0  0  0
    2.8086    0.0784   -0.4328 B   0  0  0  0  0  0  0  0  0  0  0  0
    2.8131   -1.2951   -0.1489 F   0  0  0  0  0  0  0  0  0  0  0  0
    3.0353    0.3410   -1.7784 F   0  0  0  0  0  0  0  0  0  0  0  0
    3.6206    0.8122    0.4046 F   0  0  0  0  0  0  0  0  0  0  0  0
    1.3736    0.2475    2.2564 F   0  0  0  0  0  0  0  0  0  0  0  0
  1  7  1  0  0  0  0
  2  8  1  6  0  0  0
  2  1  1  0  0  0  0
  2 20  1  0  0  0  0
  3 16  1  6  0  0  0
  3  2  1  0  0  0  0
  4  5  2  0  0  0  0
  4  3  1  0  0  0  0
  5  6  1  0  0  0  0
  6 11  1  0  0  0  0
  6  1  2  0  0  0  0
  9  4  1  0  0  0  0
 10  5  1  0  0  0  0
 11 12  2  0  0  0  0
 13 11  2  0  0  0  0
 14 15  3  0  0  0  0
 16 17  1  0  0  0  0
 16 19  1  0  0  0  0
 18 16  1  0  0  0  0
M  RAD  1   3   2
M  END
