Coordinates from ORCA-job p-NO2-Ph-N2-BF4-B3LYPG-6-31G_dp-scan-d09-49-n400
 OpenBabel08281821153D

 20 19  0  0  1  0  0  0  0  0999 V2000
   -0.9664    0.5163    1.4131 C   0  0  0  0  0  0  0  0  0  0  0  0
    0.4550    0.1838    1.1964 C   0  0  1  0  0  0  0  0  0  0  0  0
    1.1126    0.5563   -0.0684 C   0  0  2  0  0  0  0  0  0  0  0  0
    0.2502    0.8506   -1.1434 C   0  0  0  0  0  0  0  0  0  0  0  0
   -1.1123    1.0035   -0.9634 C   0  0  0  0  0  0  0  0  0  0  0  0
   -1.7063    0.8358    0.3224 C   0  0  0  0  0  0  0  0  0  0  0  0
   -1.4041    0.4273    2.4014 H   0  0  0  0  0  0  0  0  0  0  0  0
    0.3910   -0.9093    0.9072 H   0  0  0  0  0  0  0  0  0  0  0  0
    0.7045    1.0263   -2.1127 H   0  0  0  0  0  0  0  0  0  0  0  0
   -1.7660    1.2764   -1.7855 H   0  0  0  0  0  0  0  0  0  0  0  0
   -3.1580    1.0888    0.4758 N   0  0  0  0  0  0  0  0  0  0  0  0
   -3.6388    0.9219    1.5899 O   0  0  0  0  0  0  0  0  0  0  0  0
   -3.7645    1.4452   -0.5292 O   0  0  0  0  0  0  0  0  0  0  0  0
    1.6866    3.1646    1.9584 N   0  0  0  0  0  0  0  0  0  0  0  0
    2.7885    3.1970    1.8753 N   0  0  0  0  0  0  0  0  0  0  0  0
    2.7651    0.3598   -0.2720 B   0  0  0  0  0  0  0  0  0  0  0  0
    2.9732   -0.9677    0.1032 F   0  0  0  0  0  0  0  0  0  0  0  0
    3.0247    0.5850   -1.6175 F   0  0  0  0  0  0  0  0  0  0  0  0
    3.4039    1.2721    0.5553 F   0  0  0  0  0  0  0  0  0  0  0  0
    1.2041    0.2851    2.3268 F   0  0  0  0  0  0  0  0  0  0  0  0
  1  7  1  0  0  0  0
  2  8  1  6  0  0  0
  2  1  1  0  0  0  0
  2 20  1  0  0  0  0
  3 16  1  6  0  0  0
  3  2  1  0  0  0  0
  4  5  2  0  0  0  0
  4  3  1  0  0  0  0
  5  6  1  0  0  0  0
  6 11  1  0  0  0  0
  6  1  2  0  0  0  0
  9  4  1  0  0  0  0
 10  5  1  0  0  0  0
 11 12  2  0  0  0  0
 13 11  2  0  0  0  0
 15 14  3  0  0  0  0
 16 17  1  0  0  0  0
 16 19  1  0  0  0  0
 18 16  1  0  0  0  0
M  RAD  1   3   2
M  END
