Coordinates from ORCA-job p-NO2-Ph-N2-BF4-B3LYPG-6-31G_dp-scan-d09-49-n400
 OpenBabel08281821153D

 20 19  0  0  1  0  0  0  0  0999 V2000
   -0.7669    0.6202    1.4080 C   0  0  0  0  0  0  0  0  0  0  0  0
    0.6138    0.1774    1.1347 C   0  0  1  0  0  0  0  0  0  0  0  0
    1.2192    0.4273   -0.1861 C   0  0  2  0  0  0  0  0  0  0  0  0
    0.3164    0.7325   -1.2252 C   0  0  0  0  0  0  0  0  0  0  0  0
   -1.0193    0.9907   -0.9799 C   0  0  0  0  0  0  0  0  0  0  0  0
   -1.5475    0.9308    0.3436 C   0  0  0  0  0  0  0  0  0  0  0  0
   -1.1507    0.6171    2.4221 H   0  0  0  0  0  0  0  0  0  0  0  0
    0.4666   -0.9245    0.9250 H   0  0  0  0  0  0  0  0  0  0  0  0
    0.7245    0.8229   -2.2263 H   0  0  0  0  0  0  0  0  0  0  0  0
   -1.6997    1.2665   -1.7791 H   0  0  0  0  0  0  0  0  0  0  0  0
   -2.9657    1.2957    0.5628 N   0  0  0  0  0  0  0  0  0  0  0  0
   -3.3888    1.2291    1.7108 O   0  0  0  0  0  0  0  0  0  0  0  0
   -3.6070    1.6367   -0.4261 O   0  0  0  0  0  0  0  0  0  0  0  0
    0.9833    3.2432    2.1548 N   0  0  0  0  0  0  0  0  0  0  0  0
    1.3361    4.0743    2.7918 N   0  0  0  0  0  0  0  0  0  0  0  0
    2.8151    0.0180   -0.4954 B   0  0  0  0  0  0  0  0  0  0  0  0
    2.8099   -1.3449   -0.1643 F   0  0  0  0  0  0  0  0  0  0  0  0
    3.0195    0.2313   -1.8530 F   0  0  0  0  0  0  0  0  0  0  0  0
    3.6496    0.7712    0.3016 F   0  0  0  0  0  0  0  0  0  0  0  0
    1.4347    0.3032    2.2130 F   0  0  0  0  0  0  0  0  0  0  0  0
  1  7  1  0  0  0  0
  2  8  1  6  0  0  0
  2  1  1  0  0  0  0
  2 20  1  0  0  0  0
  3 16  1  6  0  0  0
  3  2  1  0  0  0  0
  4  5  2  0  0  0  0
  4  3  1  0  0  0  0
  5  6  1  0  0  0  0
  6 11  1  0  0  0  0
  6  1  2  0  0  0  0
  9  4  1  0  0  0  0
 10  5  1  0  0  0  0
 11 12  2  0  0  0  0
 13 11  2  0  0  0  0
 14 15  3  0  0  0  0
 16 17  1  0  0  0  0
 16 19  1  0  0  0  0
 18 16  1  0  0  0  0
M  RAD  1   3   2
M  END
