Coordinates from ORCA-job p-NO2-Ph-N2-BF4-B3LYPG-6-31G_dp-scan-d09-49-n400
 OpenBabel08281821153D

 20 19  0  0  1  0  0  0  0  0999 V2000
   -0.9158    0.4991    1.4221 C   0  0  0  0  0  0  0  0  0  0  0  0
    0.4944    0.1338    1.1872 C   0  0  1  0  0  0  0  0  0  0  0  0
    1.1500    0.5115   -0.0772 C   0  0  2  0  0  0  0  0  0  0  0  0
    0.2858    0.8520   -1.1384 C   0  0  0  0  0  0  0  0  0  0  0  0
   -1.0700    1.0348   -0.9436 C   0  0  0  0  0  0  0  0  0  0  0  0
   -1.6570    0.8572    0.3448 C   0  0  0  0  0  0  0  0  0  0  0  0
   -1.3474    0.4037    2.4124 H   0  0  0  0  0  0  0  0  0  0  0  0
    0.4061   -0.9537    0.8878 H   0  0  0  0  0  0  0  0  0  0  0  0
    0.7367    1.0353   -2.1078 H   0  0  0  0  0  0  0  0  0  0  0  0
   -1.7238    1.3396   -1.7543 H   0  0  0  0  0  0  0  0  0  0  0  0
   -3.0998    1.1447    0.5163 N   0  0  0  0  0  0  0  0  0  0  0  0
   -3.5746    0.9741    1.6327 O   0  0  0  0  0  0  0  0  0  0  0  0
   -3.7071    1.5316   -0.4770 O   0  0  0  0  0  0  0  0  0  0  0  0
    1.5383    3.1146    1.7722 N   0  0  0  0  0  0  0  0  0  0  0  0
    2.2742    3.8691    2.1034 N   0  0  0  0  0  0  0  0  0  0  0  0
    2.7813    0.2172   -0.3182 B   0  0  0  0  0  0  0  0  0  0  0  0
    2.8511   -1.1619   -0.0814 F   0  0  0  0  0  0  0  0  0  0  0  0
    3.0503    0.5431   -1.6419 F   0  0  0  0  0  0  0  0  0  0  0  0
    3.5148    0.9641    0.5810 F   0  0  0  0  0  0  0  0  0  0  0  0
    1.2557    0.2087    2.3126 F   0  0  0  0  0  0  0  0  0  0  0  0
  1  7  1  0  0  0  0
  2  8  1  6  0  0  0
  2  1  1  0  0  0  0
  2 20  1  0  0  0  0
  3 16  1  6  0  0  0
  3  2  1  0  0  0  0
  4  5  2  0  0  0  0
  4  3  1  0  0  0  0
  5  6  1  0  0  0  0
  6 11  1  0  0  0  0
  6  1  2  0  0  0  0
  9  4  1  0  0  0  0
 10  5  1  0  0  0  0
 11 12  2  0  0  0  0
 13 11  2  0  0  0  0
 14 15  3  0  0  0  0
 16 17  1  0  0  0  0
 16 19  1  0  0  0  0
 18 16  1  0  0  0  0
M  RAD  1   3   2
M  END
