Coordinates from ORCA-job p-NO2-Ph-N2-BF4-B3LYPG-6-31G_dp-scan-d09-49-n400
 OpenBabel08281821153D

 20 19  0  0  1  0  0  0  0  0999 V2000
   -0.8082    0.5725    1.4201 C   0  0  0  0  0  0  0  0  0  0  0  0
    0.5804    0.1495    1.1544 C   0  0  1  0  0  0  0  0  0  0  0  0
    1.2047    0.4515   -0.1464 C   0  0  2  0  0  0  0  0  0  0  0  0
    0.3163    0.7836   -1.1898 C   0  0  0  0  0  0  0  0  0  0  0  0
   -1.0253    1.0218   -0.9579 C   0  0  0  0  0  0  0  0  0  0  0  0
   -1.5740    0.9132    0.3543 C   0  0  0  0  0  0  0  0  0  0  0  0
   -1.2083    0.5319    2.4272 H   0  0  0  0  0  0  0  0  0  0  0  0
    0.4474   -0.9462    0.9076 H   0  0  0  0  0  0  0  0  0  0  0  0
    0.7395    0.9120   -2.1803 H   0  0  0  0  0  0  0  0  0  0  0  0
   -1.6953    1.3190   -1.7582 H   0  0  0  0  0  0  0  0  0  0  0  0
   -2.9989    1.2591    0.5622 N   0  0  0  0  0  0  0  0  0  0  0  0
   -3.4402    1.1494    1.6999 O   0  0  0  0  0  0  0  0  0  0  0  0
   -3.6264    1.6294   -0.4249 O   0  0  0  0  0  0  0  0  0  0  0  0
    1.1222    3.1865    1.9562 N   0  0  0  0  0  0  0  0  0  0  0  0
    1.5408    4.0248    2.5417 N   0  0  0  0  0  0  0  0  0  0  0  0
    2.8105    0.0715   -0.4399 B   0  0  0  0  0  0  0  0  0  0  0  0
    2.8196   -1.3001   -0.1488 F   0  0  0  0  0  0  0  0  0  0  0  0
    3.0348    0.3280   -1.7871 F   0  0  0  0  0  0  0  0  0  0  0  0
    3.6207    0.8126    0.3930 F   0  0  0  0  0  0  0  0  0  0  0  0
    1.3826    0.2488    2.2496 F   0  0  0  0  0  0  0  0  0  0  0  0
  1  7  1  0  0  0  0
  2  8  1  6  0  0  0
  2  1  1  0  0  0  0
  2 20  1  0  0  0  0
  3 16  1  6  0  0  0
  3  2  1  0  0  0  0
  4  5  2  0  0  0  0
  4  3  1  0  0  0  0
  5  6  1  0  0  0  0
  6 11  1  0  0  0  0
  6  1  2  0  0  0  0
  9  4  1  0  0  0  0
 10  5  1  0  0  0  0
 11 12  2  0  0  0  0
 13 11  2  0  0  0  0
 14 15  3  0  0  0  0
 16 17  1  0  0  0  0
 16 19  1  0  0  0  0
 18 16  1  0  0  0  0
M  RAD  1   3   2
M  END
