Coordinates from ORCA-job p-NO2-Ph-N2-BF4-B3LYPG-6-31G_dp-scan-d09-49-n400
 OpenBabel08281821153D

 20 19  0  0  1  0  0  0  0  0999 V2000
   -0.9806    0.4941    1.4244 C   0  0  0  0  0  0  0  0  0  0  0  0
    0.4431    0.1673    1.2145 C   0  0  1  0  0  0  0  0  0  0  0  0
    1.1117    0.5758   -0.0329 C   0  0  2  0  0  0  0  0  0  0  0  0
    0.2613    0.8887   -1.1111 C   0  0  0  0  0  0  0  0  0  0  0  0
   -1.1036    1.0353   -0.9413 C   0  0  0  0  0  0  0  0  0  0  0  0
   -1.7098    0.8389    0.3341 C   0  0  0  0  0  0  0  0  0  0  0  0
   -1.4283    0.3800    2.4056 H   0  0  0  0  0  0  0  0  0  0  0  0
    0.3820   -0.9188    0.8990 H   0  0  0  0  0  0  0  0  0  0  0  0
    0.7243    1.0880   -2.0716 H   0  0  0  0  0  0  0  0  0  0  0  0
   -1.7493    1.3262   -1.7637 H   0  0  0  0  0  0  0  0  0  0  0  0
   -3.1631    1.0885    0.4791 N   0  0  0  0  0  0  0  0  0  0  0  0
   -3.6544    0.8960    1.5844 O   0  0  0  0  0  0  0  0  0  0  0  0
   -3.7603    1.4644   -0.5243 O   0  0  0  0  0  0  0  0  0  0  0  0
    1.6918    3.0792    1.7239 N   0  0  0  0  0  0  0  0  0  0  0  0
    2.7934    2.9814    1.6447 N   0  0  0  0  0  0  0  0  0  0  0  0
    2.7690    0.4085   -0.2174 B   0  0  0  0  0  0  0  0  0  0  0  0
    3.0150   -0.9043    0.1756 F   0  0  0  0  0  0  0  0  0  0  0  0
    3.0438    0.6353   -1.5581 F   0  0  0  0  0  0  0  0  0  0  0  0
    3.3760    1.3537    0.6140 F   0  0  0  0  0  0  0  0  0  0  0  0
    1.1809    0.2407    2.3539 F   0  0  0  0  0  0  0  0  0  0  0  0
  1  7  1  0  0  0  0
  2  8  1  6  0  0  0
  2  1  1  0  0  0  0
  2 20  1  0  0  0  0
  3 16  1  6  0  0  0
  3  2  1  0  0  0  0
  4  5  2  0  0  0  0
  4  3  1  0  0  0  0
  5  6  1  0  0  0  0
  6 11  1  0  0  0  0
  6  1  2  0  0  0  0
  9  4  1  0  0  0  0
 10  5  1  0  0  0  0
 11 12  2  0  0  0  0
 13 11  2  0  0  0  0
 15 14  3  0  0  0  0
 16 17  1  0  0  0  0
 16 19  1  0  0  0  0
 18 16  1  0  0  0  0
M  RAD  1   3   2
M  END
