Coordinates from ORCA-job p-NO2-Ph-N2-BF4-B3LYPG-6-31G_dp-scan-d09-49-n400
 OpenBabel08281821153D

 20 19  0  0  1  0  0  0  0  0999 V2000
   -0.9375    0.5121    1.4192 C   0  0  0  0  0  0  0  0  0  0  0  0
    0.4782    0.1623    1.1928 C   0  0  1  0  0  0  0  0  0  0  0  0
    1.1345    0.5379   -0.0720 C   0  0  2  0  0  0  0  0  0  0  0  0
    0.2704    0.8540   -1.1400 C   0  0  0  0  0  0  0  0  0  0  0  0
   -1.0889    1.0215   -0.9523 C   0  0  0  0  0  0  0  0  0  0  0  0
   -1.6789    0.8498    0.3351 C   0  0  0  0  0  0  0  0  0  0  0  0
   -1.3716    0.4210    2.4088 H   0  0  0  0  0  0  0  0  0  0  0  0
    0.4018   -0.9282    0.8999 H   0  0  0  0  0  0  0  0  0  0  0  0
    0.7227    1.0329   -2.1097 H   0  0  0  0  0  0  0  0  0  0  0  0
   -1.7431    1.3098   -1.7688 H   0  0  0  0  0  0  0  0  0  0  0  0
   -3.1261    1.1202    0.4980 N   0  0  0  0  0  0  0  0  0  0  0  0
   -3.6035    0.9520    1.6135 O   0  0  0  0  0  0  0  0  0  0  0  0
   -3.7336    1.4912   -0.5012 O   0  0  0  0  0  0  0  0  0  0  0  0
    1.5207    3.1252    1.8654 N   0  0  0  0  0  0  0  0  0  0  0  0
    2.5616    3.4801    1.9710 N   0  0  0  0  0  0  0  0  0  0  0  0
    2.7778    0.2940   -0.2948 B   0  0  0  0  0  0  0  0  0  0  0  0
    2.9197   -1.0609    0.0195 F   0  0  0  0  0  0  0  0  0  0  0  0
    3.0360    0.5610   -1.6337 F   0  0  0  0  0  0  0  0  0  0  0  0
    3.4682    1.1315    0.5621 F   0  0  0  0  0  0  0  0  0  0  0  0
    1.2345    0.2512    2.3203 F   0  0  0  0  0  0  0  0  0  0  0  0
  1  7  1  0  0  0  0
  2  8  1  6  0  0  0
  2  1  1  0  0  0  0
  2 20  1  0  0  0  0
  3 16  1  6  0  0  0
  3  2  1  0  0  0  0
  4  5  2  0  0  0  0
  4  3  1  0  0  0  0
  5  6  1  0  0  0  0
  6 11  1  0  0  0  0
  6  1  2  0  0  0  0
  9  4  1  0  0  0  0
 10  5  1  0  0  0  0
 11 12  2  0  0  0  0
 13 11  2  0  0  0  0
 14 15  3  0  0  0  0
 16 17  1  0  0  0  0
 16 19  1  0  0  0  0
 18 16  1  0  0  0  0
M  RAD  1   3   2
M  END
