Coordinates from ORCA-job p-NO2-Ph-N2-BF4-B3LYPG-6-31G_dp-scan-d09-49-n400
 OpenBabel08281821153D

 20 20  0  0  1  0  0  0  0  0999 V2000
   -0.9821    0.4354    1.4397 C   0  0  0  0  0  0  0  0  0  0  0  0
    0.4605    0.0689    1.2423 C   0  0  1  0  0  0  0  0  0  0  0  0
    1.1817    0.9300    0.1893 C   0  0  1  0  0  0  0  0  0  0  0  0
    0.2891    1.1577   -1.0146 C   0  0  0  0  0  0  0  0  0  0  0  0
   -1.0489    1.1342   -0.9127 C   0  0  0  0  0  0  0  0  0  0  0  0
   -1.6735    0.8797    0.3827 C   0  0  0  0  0  0  0  0  0  0  0  0
   -1.4516    0.2564    2.3999 H   0  0  0  0  0  0  0  0  0  0  0  0
    0.5106   -0.9743    0.8917 H   0  0  0  0  0  0  0  0  0  0  0  0
    0.7764    1.3942   -1.9537 H   0  0  0  0  0  0  0  0  0  0  0  0
   -1.6936    1.3286   -1.7606 H   0  0  0  0  0  0  0  0  0  0  0  0
   -3.1178    1.1435    0.5227 N   0  0  0  0  0  0  0  0  0  0  0  0
   -3.6346    0.9480    1.6189 O   0  0  0  0  0  0  0  0  0  0  0  0
   -3.7072    1.5421   -0.4809 O   0  0  0  0  0  0  0  0  0  0  0  0
    1.3995    2.2839    0.8425 N   0  0  0  0  0  0  0  0  0  0  0  0
    2.4920    2.6244    1.1687 N   0  0  0  0  0  0  0  0  0  0  0  0
    2.6432    0.3504   -0.1936 B   0  0  0  0  0  0  0  0  0  0  0  0
    3.0399   -0.8032    0.3545 F   0  0  0  0  0  0  0  0  0  0  0  0
    3.1317    0.6711   -1.4011 F   0  0  0  0  0  0  0  0  0  0  0  0
    3.4874    1.6029    0.8502 F   0  0  0  0  0  0  0  0  0  0  0  0
    1.1402    0.1447    2.4466 F   0  0  0  0  0  0  0  0  0  0  0  0
  1  7  1  0  0  0  0
  2  8  1  6  0  0  0
  2  1  1  0  0  0  0
  2 20  1  0  0  0  0
  3 16  1  6  0  0  0
  3 14  1  0  0  0  0
  3  2  1  0  0  0  0
  4  5  2  0  0  0  0
  4  3  1  0  0  0  0
  5  6  1  0  0  0  0
  6 11  1  0  0  0  0
  6  1  2  0  0  0  0
  9  4  1  0  0  0  0
 10  5  1  0  0  0  0
 11 12  2  0  0  0  0
 13 11  2  0  0  0  0
 14 15  1  0  0  0  0
 16 17  1  0  0  0  0
 18 16  1  0  0  0  0
 19 15  1  0  0  0  0
M  RAD  2  14   2  15   2
M  END
