18
Coordinates from ORCA-job p-CH3O-Ph-N2-X-Cl-B3LYPG-6-31G_dp-scan-d09-49-n400
  C   -0.96451844885734     -1.55059029890613     -0.90445778643125
  C   0.28163799316354     -0.95796173585045     -0.93751942309722
  C   0.35292860987287      0.39468686389224     -0.52213645659240
  C   -0.76511392519052      1.13761591176239     -0.08875912413012
  C   -1.99622867373288      0.51520576229975     -0.06788486560891
  C   -2.10324449344850     -0.83708544325989     -0.47770387824648
  H   -1.08709681558336     -2.58394096577032     -1.21002919154957
  H   1.21412574301776     -1.47228231569089     -1.26514364222014
  H   -0.65584288279393      2.17149264621509      0.22005167275182
  H   -2.86562288637631      1.06864477084921      0.26148703066029
  N   1.57531963331984      1.00326729506330     -0.54635416662052
  N   2.63086404129638      1.38034713168298     -0.61434212359662
  Cl  3.20385544907350     -1.91861961288466     -1.75275265555816
  O   -3.25569664674818     -1.52197394085602     -0.49232930436657
  C   -4.46866407135263     -0.88770226345211     -0.07875487301898
  H   -5.24538223528079     -1.64384280275744     -0.18963563305148
  H   -4.70245113593011     -0.02811501182903     -0.71618822245050
  H   -4.41226925444933     -0.57204599050803      0.96845264312677
