18
Coordinates from ORCA-job p-CH3O-Ph-N2-X-Cl-B3LYPG-6-31G_dp-scan-d09-49-n400
  C   -1.02735542631803     -1.60321480526204     -0.90248533148445
  C   0.23095640790267     -1.03313586418820     -0.94437169008386
  C   0.37485006671022      0.31216339890535     -0.54688571633527
  C   -0.72979212401245      1.05970770620572     -0.11698610615687
  C   -1.99119063283263      0.48140886279489     -0.07823269188630
  C   -2.14486269824907     -0.85913867789473     -0.47364626918713
  H   -1.18084930515864     -2.63455408779843     -1.20013708349850
  H   1.10090410360883     -1.58909337891738     -1.27254723248236
  H   -0.58420527044460      2.09170285504211      0.18309336279121
  H   -2.83745005585444      1.06829393738849      0.25449506623393
  N   1.60160064828059      0.98087749405336     -0.55247640685612
  N   2.74114505892093      0.88113993653325     -0.79268399619473
  Cl  3.45619975904311     -1.02784900839298     -1.54579896352511
  O   -3.32015706338482     -1.52301507646290     -0.47871999162948
  C   -4.50247182668627     -0.84322880048267     -0.06312659280755
  H   -5.31047281755629     -1.56848978625495     -0.16139369452026
  H   -4.71059533296463      0.02195398474565     -0.70318419562666
  H   -4.42965349100451     -0.51842869001457      0.98108753324953
