18
Coordinates from ORCA-job Ph-N2-BF4-B3LYPG-6-31G_dp-scan-d09-49-n400
  C   -1.12841036674191      0.12901113106255      0.81893248427369
  C   0.20680787990060      0.25327363012010      0.44673262597793
  C   0.53123799942924      1.35916893730133     -0.35401363246385
  C   -0.39694691090381      2.32381821231900     -0.78587254863214
  C   -1.71497996666032      2.16801181105465     -0.38270746003553
  C   -2.07649976913209      1.07380046028190      0.41575154659600
  H   -1.42540676286183     -0.71112892104505      1.43751694040700
  H   0.98827793581519     -0.44546144695340      0.74143440641941
  H   -0.08143202309710      3.15755978774474     -1.40324897794716
  H   -2.45960723099785      2.89442093219942     -0.68920523877485
  N   1.83902111371134      1.51558899115301     -0.78906518292378
  N   2.86372650921317      1.65697182656313     -1.20360987183310
  B   3.54839859120295     -0.06448924974901      1.23331534460883
  F   4.30700184180936      0.33206661092722      0.10068147698600
  F   4.34958133563850     -0.38127089599546      2.29735116054263
  F   2.67089209171169      1.01639967073937      1.54799802872730
  F   2.72951835409985     -1.16259372923492      0.84772690498966
  H   -3.11068062213694      0.96085224151141      0.72618199308196
