Coordinates from ORCA-job p-NO2-Ph-N2-H-OTs-B3LYPG-6-31G_dp-scan-d09-49-n400
 OpenBabel08281820503D

 33 34  0  0  1  0  0  0  0  0999 V2000
    1.9777    0.7435   -1.6840 C   0  0  0  0  0  0  0  0  0  0  0  0
    2.4797    0.2931   -3.0367 C   0  0  1  0  0  0  0  0  0  0  0  0
    1.4704    0.6934   -4.1276 C   0  0  0  0  0  0  0  0  0  0  0  0
    0.3718    1.5771   -3.8967 C   0  0  0  0  0  0  0  0  0  0  0  0
    0.1183    2.0550   -2.6405 C   0  0  0  0  0  0  0  0  0  0  0  0
    0.8941    1.5159   -1.5312 C   0  0  0  0  0  0  0  0  0  0  0  0
    2.5307    0.4229   -0.8096 H   0  0  0  0  0  0  0  0  0  0  0  0
    2.5035   -0.8051   -2.9889 H   0  0  0  0  0  0  0  0  0  0  0  0
   -0.2233    1.9024   -4.7442 H   0  0  0  0  0  0  0  0  0  0  0  0
   -0.7207    2.7037   -2.4295 H   0  0  0  0  0  0  0  0  0  0  0  0
    0.4883    1.9029   -0.1688 N   0  0  0  0  0  0  0  0  0  0  0  0
   -0.4426    2.7029   -0.0771 O   0  0  0  0  0  0  0  0  0  0  0  0
    1.0826    1.3971    0.7782 O   0  0  0  0  0  0  0  0  0  0  0  0
    1.6812    0.2447   -5.3431 N   0  0  0  0  0  0  0  0  0  0  0  0
    1.9007   -0.1783   -6.3799 N   0  0  0  0  0  0  0  0  0  0  0  0
    5.8176    2.1571   -3.8176 C   0  0  0  0  0  0  0  0  0  0  0  0
    6.6007    1.0749   -4.2110 C   0  0  0  0  0  0  0  0  0  0  0  0
    6.0819   -0.2203   -4.1900 C   0  0  0  0  0  0  0  0  0  0  0  0
    4.7535   -0.3791   -3.7775 C   0  0  0  0  0  0  0  0  0  0  0  0
    3.9341    0.6844   -3.3750 C   0  0  0  0  0  0  0  0  0  0  0  0
    4.4960    1.9832   -3.3976 C   0  0  0  0  0  0  0  0  0  0  0  0
    6.2232    3.1619   -3.8331 H   0  0  0  0  0  0  0  0  0  0  0  0
    7.6229    1.2464   -4.5358 H   0  0  0  0  0  0  0  0  0  0  0  0
    4.3320   -1.3824   -3.7711 H   0  0  0  0  0  0  0  0  0  0  0  0
    1.4337    3.1687   -3.2728 H   0  0  0  0  0  0  0  0  0  0  0  0
    3.7046    3.5213   -2.8355 S   0  0  0  0  0  0  0  0  0  0  0  0
    2.4168    3.6629   -3.7782 O   0  0  0  0  0  0  0  0  0  0  0  0
    4.5991    4.6139   -3.1998 O   0  0  0  0  0  0  0  0  0  0  0  0
    3.2960    3.3459   -1.4399 O   0  0  0  0  0  0  0  0  0  0  0  0
    6.9208   -1.4132   -4.5767 C   0  0  0  0  0  0  0  0  0  0  0  0
    7.6935   -1.1384   -5.2999 H   0  0  0  0  0  0  0  0  0  0  0  0
    7.4281   -1.8338   -3.6998 H   0  0  0  0  0  0  0  0  0  0  0  0
    6.3115   -2.2099   -5.0134 H   0  0  0  0  0  0  0  0  0  0  0  0
  1  6  2  0  0  0  0
  1  7  1  0  0  0  0
  2  8  1  1  0  0  0
  2  1  1  0  0  0  0
  3  4  2  0  0  0  0
  3  2  1  0  0  0  0
  4  5  1  0  0  0  0
  5 10  1  0  0  0  0
  5  6  1  0  0  0  0
  6 11  1  0  0  0  0
  9  4  1  0  0  0  0
 11 12  2  0  0  0  0
 11 13  2  0  0  0  0
 14  3  1  0  0  0  0
 15 14  1  0  0  0  0
 16 21  2  0  0  0  0
 17 18  2  0  0  0  0
 17 16  1  0  0  0  0
 18 19  1  0  0  0  0
 19 24  1  0  0  0  0
 19 20  2  0  0  0  0
 20  2  1  0  0  0  0
 21 20  1  0  0  0  0
 21 26  1  0  0  0  0
 22 16  1  0  0  0  0
 23 17  1  0  0  0  0
 26 29  2  0  0  0  0
 27 25  1  0  0  0  0
 27 26  1  0  0  0  0
 28 26  2  0  0  0  0
 30 18  1  0  0  0  0
 30 32  1  0  0  0  0
 31 30  1  0  0  0  0
 33 30  1  0  0  0  0
M  RAD  3   5   2  14   2  15   3
M  END
