Coordinates from ORCA-job p-NO2-Ph-N2-H-OTs-B3LYPG-6-31G_dp-scan-d09-49-n400
 OpenBabel08281820503D

 33 35  0  0  1  0  0  0  0  0999 V2000
    1.9675    0.5228   -1.8246 C   0  0  0  0  0  0  0  0  0  0  0  0
    2.4229    0.2445   -3.2392 C   0  0  1  0  0  0  0  0  0  0  0  0
    1.5102    0.9552   -4.2147 C   0  0  1  0  0  0  0  0  0  0  0  0
    1.0183    2.3139   -3.8913 C   0  0  1  0  0  0  0  0  0  0  0  0
    0.4912    2.4695   -2.4693 C   0  0  0  0  0  0  0  0  0  0  0  0
    1.0920    1.4811   -1.5204 C   0  0  0  0  0  0  0  0  0  0  0  0
    2.3782   -0.0860   -1.0271 H   0  0  0  0  0  0  0  0  0  0  0  0
    2.3360   -0.8381   -3.3934 H   0  0  0  0  0  0  0  0  0  0  0  0
    0.2775    2.6456   -4.6200 H   0  0  0  0  0  0  0  0  0  0  0  0
   -0.6002    2.4585   -2.4210 H   0  0  0  0  0  0  0  0  0  0  0  0
    0.6958    1.6375   -0.1085 N   0  0  0  0  0  0  0  0  0  0  0  0
   -0.1240    2.5243    0.1296 O   0  0  0  0  0  0  0  0  0  0  0  0
    1.1807    0.8808    0.7301 O   0  0  0  0  0  0  0  0  0  0  0  0
    1.3792    0.4914   -5.4230 N   0  0  0  0  0  0  0  0  0  0  0  0
    1.2326    0.0466   -6.4673 N   0  0  0  0  0  0  0  0  0  0  0  0
    5.7197    2.1270   -4.0120 C   0  0  0  0  0  0  0  0  0  0  0  0
    6.5877    1.0522   -4.1946 C   0  0  0  0  0  0  0  0  0  0  0  0
    6.1440   -0.2603   -4.0192 C   0  0  0  0  0  0  0  0  0  0  0  0
    4.7966   -0.4584   -3.6852 C   0  0  0  0  0  0  0  0  0  0  0  0
    3.8992    0.5943   -3.4925 C   0  0  0  0  0  0  0  0  0  0  0  0
    4.3880    1.9079   -3.6535 C   0  0  0  0  0  0  0  0  0  0  0  0
    6.0668    3.1445   -4.1487 H   0  0  0  0  0  0  0  0  0  0  0  0
    7.6182    1.2431   -4.4792 H   0  0  0  0  0  0  0  0  0  0  0  0
    4.4282   -1.4770   -3.5822 H   0  0  0  0  0  0  0  0  0  0  0  0
    0.8690    3.4746   -2.2798 H   0  0  0  0  0  0  0  0  0  0  0  0
    3.4864    3.4268   -3.2557 S   0  0  0  0  0  0  0  0  0  0  0  0
    2.0427    3.3772   -4.0342 O   0  0  0  0  0  0  0  0  0  0  0  0
    4.1711    4.5376   -3.9009 O   0  0  0  0  0  0  0  0  0  0  0  0
    3.2546    3.4459   -1.8123 O   0  0  0  0  0  0  0  0  0  0  0  0
    7.0776   -1.4349   -4.1744 C   0  0  0  0  0  0  0  0  0  0  0  0
    7.9396   -1.1815   -4.7968 H   0  0  0  0  0  0  0  0  0  0  0  0
    7.4597   -1.7578   -3.1987 H   0  0  0  0  0  0  0  0  0  0  0  0
    6.5712   -2.2941   -4.6242 H   0  0  0  0  0  0  0  0  0  0  0  0
  1  6  2  0  0  0  0
  1  7  1  0  0  0  0
  2  8  1  6  0  0  0
  2  1  1  0  0  0  0
  3 14  1  6  0  0  0
  3  4  1  0  0  0  0
  3  2  1  0  0  0  0
  4  9  1  6  0  0  0
  4  5  1  0  0  0  0
  5 10  1  0  0  0  0
  5 25  1  0  0  0  0
  5  6  1  0  0  0  0
  6 11  1  0  0  0  0
 11 12  2  0  0  0  0
 11 13  2  0  0  0  0
 15 14  1  0  0  0  0
 16 21  2  0  0  0  0
 17 18  2  0  0  0  0
 17 16  1  0  0  0  0
 18 19  1  0  0  0  0
 19 24  1  0  0  0  0
 19 20  2  0  0  0  0
 20  2  1  0  0  0  0
 21 20  1  0  0  0  0
 21 26  1  0  0  0  0
 22 16  1  0  0  0  0
 23 17  1  0  0  0  0
 26 29  2  0  0  0  0
 27  4  1  0  0  0  0
 27 26  1  0  0  0  0
 28 26  2  0  0  0  0
 30 18  1  0  0  0  0
 30 32  1  0  0  0  0
 31 30  1  0  0  0  0
 33 30  1  0  0  0  0
M  RAD  3   3   2  14   2  15   3
M  END
