Coordinates from ORCA-job p-NO2-Ph-N2-H-OTs-B3LYPG-6-31G_dp-scan-d09-49-n400
 OpenBabel08281820503D

 33 34  0  0  1  0  0  0  0  0999 V2000
    1.9856    0.7582   -1.6858 C   0  0  0  0  0  0  0  0  0  0  0  0
    2.4794    0.3115   -3.0430 C   0  0  1  0  0  0  0  0  0  0  0  0
    1.4694    0.7200   -4.1297 C   0  0  0  0  0  0  0  0  0  0  0  0
    0.3462    1.5743   -3.8795 C   0  0  0  0  0  0  0  0  0  0  0  0
    0.0716    2.0091   -2.6162 C   0  0  0  0  0  0  0  0  0  0  0  0
    0.8797    1.4967   -1.5202 C   0  0  0  0  0  0  0  0  0  0  0  0
    2.5592    0.4570   -0.8179 H   0  0  0  0  0  0  0  0  0  0  0  0
    2.4973   -0.7874   -2.9973 H   0  0  0  0  0  0  0  0  0  0  0  0
   -0.2589    1.8952   -4.7216 H   0  0  0  0  0  0  0  0  0  0  0  0
   -0.7769    2.6411   -2.3942 H   0  0  0  0  0  0  0  0  0  0  0  0
    0.4813    1.8695   -0.1507 N   0  0  0  0  0  0  0  0  0  0  0  0
   -0.4723    2.6403   -0.0439 O   0  0  0  0  0  0  0  0  0  0  0  0
    1.1073    1.3855    0.7876 O   0  0  0  0  0  0  0  0  0  0  0  0
    1.6888    0.2969   -5.3508 N   0  0  0  0  0  0  0  0  0  0  0  0
    1.9158   -0.1009   -6.3974 N   0  0  0  0  0  0  0  0  0  0  0  0
    5.8313    2.1538   -3.8255 C   0  0  0  0  0  0  0  0  0  0  0  0
    6.6107    1.0651   -4.2079 C   0  0  0  0  0  0  0  0  0  0  0  0
    6.0846   -0.2270   -4.1813 C   0  0  0  0  0  0  0  0  0  0  0  0
    4.7533   -0.3770   -3.7738 C   0  0  0  0  0  0  0  0  0  0  0  0
    3.9368    0.6919   -3.3812 C   0  0  0  0  0  0  0  0  0  0  0  0
    4.5071    1.9868   -3.4110 C   0  0  0  0  0  0  0  0  0  0  0  0
    6.2418    3.1564   -3.8463 H   0  0  0  0  0  0  0  0  0  0  0  0
    7.6351    1.2293   -4.5293 H   0  0  0  0  0  0  0  0  0  0  0  0
    4.3266   -1.3780   -3.7642 H   0  0  0  0  0  0  0  0  0  0  0  0
    1.4845    3.2145   -3.3177 H   0  0  0  0  0  0  0  0  0  0  0  0
    3.7194    3.5288   -2.8645 S   0  0  0  0  0  0  0  0  0  0  0  0
    2.4344    3.6700   -3.8282 O   0  0  0  0  0  0  0  0  0  0  0  0
    4.6141    4.6193   -3.2306 O   0  0  0  0  0  0  0  0  0  0  0  0
    3.2833    3.3664   -1.4767 O   0  0  0  0  0  0  0  0  0  0  0  0
    6.9187   -1.4264   -4.5577 C   0  0  0  0  0  0  0  0  0  0  0  0
    7.6971   -1.1593   -5.2778 H   0  0  0  0  0  0  0  0  0  0  0  0
    7.4185   -1.8455   -3.6758 H   0  0  0  0  0  0  0  0  0  0  0  0
    6.3073   -2.2216   -4.9940 H   0  0  0  0  0  0  0  0  0  0  0  0
  1  6  2  0  0  0  0
  1  7  1  0  0  0  0
  2  8  1  1  0  0  0
  2  1  1  0  0  0  0
  3  4  2  0  0  0  0
  3  2  1  0  0  0  0
  4  5  1  0  0  0  0
  5 10  1  0  0  0  0
  5  6  1  0  0  0  0
  6 11  1  0  0  0  0
  9  4  1  0  0  0  0
 11 12  2  0  0  0  0
 11 13  2  0  0  0  0
 14  3  1  0  0  0  0
 15 14  1  0  0  0  0
 16 21  2  0  0  0  0
 17 18  2  0  0  0  0
 17 16  1  0  0  0  0
 18 19  1  0  0  0  0
 19 24  1  0  0  0  0
 19 20  2  0  0  0  0
 20  2  1  0  0  0  0
 21 20  1  0  0  0  0
 21 26  1  0  0  0  0
 22 16  1  0  0  0  0
 23 17  1  0  0  0  0
 26 29  2  0  0  0  0
 27 25  1  0  0  0  0
 27 26  1  0  0  0  0
 28 26  2  0  0  0  0
 30 18  1  0  0  0  0
 30 32  1  0  0  0  0
 31 30  1  0  0  0  0
 33 30  1  0  0  0  0
M  RAD  3   5   2  14   2  15   3
M  END
