Coordinates from ORCA-job p-NO2-Ph-N2-H-OTs-B3LYPG-6-31G_dp-scan-d09-49-n400
 OpenBabel08281820503D

 33 35  0  0  1  0  0  0  0  0999 V2000
    2.0545    0.5982   -1.8417 C   0  0  0  0  0  0  0  0  0  0  0  0
    2.4276    0.3232   -3.2785 C   0  0  1  0  0  0  0  0  0  0  0  0
    1.4643    1.0375   -4.2068 C   0  0  1  0  0  0  0  0  0  0  0  0
    1.0517    2.4401   -3.8891 C   0  0  1  0  0  0  0  0  0  0  0  0
    0.3828    2.3954   -2.4564 C   0  0  0  0  0  0  0  0  0  0  0  0
    1.1458    1.5127   -1.5073 C   0  0  0  0  0  0  0  0  0  0  0  0
    2.5639    0.0417   -1.0636 H   0  0  0  0  0  0  0  0  0  0  0  0
    2.3200   -0.7573   -3.4353 H   0  0  0  0  0  0  0  0  0  0  0  0
    0.3022    2.8015   -4.5929 H   0  0  0  0  0  0  0  0  0  0  0  0
   -0.5652    1.8869   -2.6902 H   0  0  0  0  0  0  0  0  0  0  0  0
    0.8204    1.6702   -0.0770 N   0  0  0  0  0  0  0  0  0  0  0  0
   -0.1040    2.4386    0.1960 O   0  0  0  0  0  0  0  0  0  0  0  0
    1.4578    1.0207    0.7482 O   0  0  0  0  0  0  0  0  0  0  0  0
    1.2633    0.5651   -5.4002 N   0  0  0  0  0  0  0  0  0  0  0  0
    1.0502    0.1151   -6.4320 N   0  0  0  0  0  0  0  0  0  0  0  0
    5.8109    2.1152   -3.9368 C   0  0  0  0  0  0  0  0  0  0  0  0
    6.6472    1.0146   -4.1091 C   0  0  0  0  0  0  0  0  0  0  0  0
    6.1459   -0.2846   -3.9991 C   0  0  0  0  0  0  0  0  0  0  0  0
    4.7794   -0.4401   -3.7287 C   0  0  0  0  0  0  0  0  0  0  0  0
    3.9121    0.6403   -3.5441 C   0  0  0  0  0  0  0  0  0  0  0  0
    4.4566    1.9370   -3.6472 C   0  0  0  0  0  0  0  0  0  0  0  0
    6.1982    3.1226   -4.0364 H   0  0  0  0  0  0  0  0  0  0  0  0
    7.6967    1.1737   -4.3393 H   0  0  0  0  0  0  0  0  0  0  0  0
    4.3717   -1.4469   -3.6653 H   0  0  0  0  0  0  0  0  0  0  0  0
    0.0349    3.2894   -1.8953 H   0  0  0  0  0  0  0  0  0  0  0  0
    3.5484    3.4735   -3.3567 S   0  0  0  0  0  0  0  0  0  0  0  0
    2.2114    3.3320   -4.2894 O   0  0  0  0  0  0  0  0  0  0  0  0
    4.2997    4.5540   -3.9782 O   0  0  0  0  0  0  0  0  0  0  0  0
    3.1531    3.5510   -1.9525 O   0  0  0  0  0  0  0  0  0  0  0  0
    7.0419   -1.4889   -4.1512 C   0  0  0  0  0  0  0  0  0  0  0  0
    7.9172   -1.2612   -4.7653 H   0  0  0  0  0  0  0  0  0  0  0  0
    7.4060   -1.8275   -3.1739 H   0  0  0  0  0  0  0  0  0  0  0  0
    6.5117   -2.3290   -4.6090 H   0  0  0  0  0  0  0  0  0  0  0  0
  1  6  2  0  0  0  0
  1  7  1  0  0  0  0
  2  8  1  6  0  0  0
  2  1  1  0  0  0  0
  3 14  1  6  0  0  0
  3  4  1  0  0  0  0
  3  2  1  0  0  0  0
  4  9  1  6  0  0  0
  4  5  1  0  0  0  0
  5 25  1  0  0  0  0
  5  6  1  0  0  0  0
  6 11  1  0  0  0  0
 10  5  1  0  0  0  0
 11 12  2  0  0  0  0
 11 13  2  0  0  0  0
 15 14  1  0  0  0  0
 16 21  2  0  0  0  0
 17 18  2  0  0  0  0
 17 16  1  0  0  0  0
 18 19  1  0  0  0  0
 19 24  1  0  0  0  0
 19 20  2  0  0  0  0
 20  2  1  0  0  0  0
 21 20  1  0  0  0  0
 21 26  1  0  0  0  0
 22 16  1  0  0  0  0
 23 17  1  0  0  0  0
 26 29  2  0  0  0  0
 27  4  1  0  0  0  0
 27 26  1  0  0  0  0
 28 26  2  0  0  0  0
 30 18  1  0  0  0  0
 30 32  1  0  0  0  0
 31 30  1  0  0  0  0
 33 30  1  0  0  0  0
M  RAD  3   3   2  14   2  15   3
M  END
