Coordinates from ORCA-job p-NO2-Ph-N2-H-OTs-B3LYPG-6-31G_dp-scan-d09-49-n400
 OpenBabel08281820503D

 33 35  0  0  1  0  0  0  0  0999 V2000
    2.0431    0.5809   -1.8432 C   0  0  0  0  0  0  0  0  0  0  0  0
    2.4263    0.3078   -3.2778 C   0  0  1  0  0  0  0  0  0  0  0  0
    1.4668    1.0220   -4.2090 C   0  0  1  0  0  0  0  0  0  0  0  0
    1.0506    2.4223   -3.8910 C   0  0  1  0  0  0  0  0  0  0  0  0
    0.4083    2.4119   -2.4604 C   0  0  0  0  0  0  0  0  0  0  0  0
    1.1459    1.5078   -1.5123 C   0  0  0  0  0  0  0  0  0  0  0  0
    2.5342    0.0115   -1.0627 H   0  0  0  0  0  0  0  0  0  0  0  0
    2.3230   -0.7727   -3.4364 H   0  0  0  0  0  0  0  0  0  0  0  0
    0.2972    2.7768   -4.5948 H   0  0  0  0  0  0  0  0  0  0  0  0
   -0.5810    1.9689   -2.6471 H   0  0  0  0  0  0  0  0  0  0  0  0
    0.8091    1.6646   -0.0849 N   0  0  0  0  0  0  0  0  0  0  0  0
   -0.0968    2.4567    0.1811 O   0  0  0  0  0  0  0  0  0  0  0  0
    1.4195    0.9933    0.7435 O   0  0  0  0  0  0  0  0  0  0  0  0
    1.2668    0.5488   -5.4024 N   0  0  0  0  0  0  0  0  0  0  0  0
    1.0552    0.0985   -6.4342 N   0  0  0  0  0  0  0  0  0  0  0  0
    5.7985    2.1177   -3.9406 C   0  0  0  0  0  0  0  0  0  0  0  0
    6.6406    1.0217   -4.1143 C   0  0  0  0  0  0  0  0  0  0  0  0
    6.1474   -0.2802   -4.0003 C   0  0  0  0  0  0  0  0  0  0  0  0
    4.7825   -0.4432   -3.7259 C   0  0  0  0  0  0  0  0  0  0  0  0
    3.9094    0.6323   -3.5401 C   0  0  0  0  0  0  0  0  0  0  0  0
    4.4461    1.9322   -3.6463 C   0  0  0  0  0  0  0  0  0  0  0  0
    6.1800    3.1271   -4.0421 H   0  0  0  0  0  0  0  0  0  0  0  0
    7.6883    1.1867   -4.3480 H   0  0  0  0  0  0  0  0  0  0  0  0
    4.3807   -1.4523   -3.6606 H   0  0  0  0  0  0  0  0  0  0  0  0
    0.1641    3.3519   -1.9347 H   0  0  0  0  0  0  0  0  0  0  0  0
    3.5360    3.4659   -3.3447 S   0  0  0  0  0  0  0  0  0  0  0  0
    2.1877    3.3328   -4.2638 O   0  0  0  0  0  0  0  0  0  0  0  0
    4.2783    4.5502   -3.9699 O   0  0  0  0  0  0  0  0  0  0  0  0
    3.1569    3.5383   -1.9357 O   0  0  0  0  0  0  0  0  0  0  0  0
    7.0498   -1.4795   -4.1528 C   0  0  0  0  0  0  0  0  0  0  0  0
    7.9238   -1.2469   -4.7669 H   0  0  0  0  0  0  0  0  0  0  0  0
    7.4158   -1.8163   -3.1756 H   0  0  0  0  0  0  0  0  0  0  0  0
    6.5241   -2.3225   -4.6107 H   0  0  0  0  0  0  0  0  0  0  0  0
  1  6  2  0  0  0  0
  1  7  1  0  0  0  0
  2  8  1  6  0  0  0
  2  1  1  0  0  0  0
  3 14  1  6  0  0  0
  3  4  1  0  0  0  0
  3  2  1  0  0  0  0
  4  9  1  6  0  0  0
  4  5  1  0  0  0  0
  5 25  1  0  0  0  0
  5  6  1  0  0  0  0
  6 11  1  0  0  0  0
 10  5  1  0  0  0  0
 11 12  2  0  0  0  0
 11 13  2  0  0  0  0
 15 14  1  0  0  0  0
 16 21  2  0  0  0  0
 17 18  2  0  0  0  0
 17 16  1  0  0  0  0
 18 19  1  0  0  0  0
 19 24  1  0  0  0  0
 19 20  2  0  0  0  0
 20  2  1  0  0  0  0
 21 20  1  0  0  0  0
 21 26  1  0  0  0  0
 22 16  1  0  0  0  0
 23 17  1  0  0  0  0
 26 29  2  0  0  0  0
 27  4  1  0  0  0  0
 27 26  1  0  0  0  0
 28 26  2  0  0  0  0
 30 18  1  0  0  0  0
 30 32  1  0  0  0  0
 31 30  1  0  0  0  0
 33 30  1  0  0  0  0
M  RAD  3   3   2  14   2  15   3
M  END
