Coordinates from ORCA-job p-NO2-Ph-N2-H-OTs-B3LYPG-6-31G_dp-scan-d09-49-n400
 OpenBabel08281820503D

 33 35  0  0  1  0  0  0  0  0999 V2000
    2.0401    0.4349   -1.9088 C   0  0  0  0  0  0  0  0  0  0  0  0
    2.3918    0.3617   -3.3852 C   0  0  1  0  0  0  0  0  0  0  0  0
    1.4461    1.2435   -4.1563 C   0  0  1  0  0  0  0  0  0  0  0  0
    1.0888    2.5268   -3.5059 C   0  0  1  0  0  0  0  0  0  0  0  0
    0.4052    2.3479   -2.1704 C   0  0  0  0  0  0  0  0  0  0  0  0
    1.1320    1.2780   -1.4049 C   0  0  0  0  0  0  0  0  0  0  0  0
    2.5365   -0.2563   -1.2362 H   0  0  0  0  0  0  0  0  0  0  0  0
    2.2439   -0.6847   -3.6824 H   0  0  0  0  0  0  0  0  0  0  0  0
    0.5532    3.2044   -4.1693 H   0  0  0  0  0  0  0  0  0  0  0  0
   -0.6672    2.1543   -2.2564 H   0  0  0  0  0  0  0  0  0  0  0  0
    0.8211    1.1896    0.0333 N   0  0  0  0  0  0  0  0  0  0  0  0
   -0.0530    1.9525    0.4451 O   0  0  0  0  0  0  0  0  0  0  0  0
    1.4256    0.3711    0.7243 O   0  0  0  0  0  0  0  0  0  0  0  0
    1.2095    1.0298   -5.4153 N   0  0  0  0  0  0  0  0  0  0  0  0
    0.9629    0.8044   -6.5087 N   0  0  0  0  0  0  0  0  0  0  0  0
    5.7767    2.0912   -4.2409 C   0  0  0  0  0  0  0  0  0  0  0  0
    6.6342    0.9983   -4.1800 C   0  0  0  0  0  0  0  0  0  0  0  0
    6.1465   -0.2718   -3.8531 C   0  0  0  0  0  0  0  0  0  0  0  0
    4.7754   -0.4042   -3.6051 C   0  0  0  0  0  0  0  0  0  0  0  0
    3.8806    0.6707   -3.6624 C   0  0  0  0  0  0  0  0  0  0  0  0
    4.4097    1.9385   -3.9884 C   0  0  0  0  0  0  0  0  0  0  0  0
    6.1641    3.0781   -4.4680 H   0  0  0  0  0  0  0  0  0  0  0  0
    7.6916    1.1368   -4.3868 H   0  0  0  0  0  0  0  0  0  0  0  0
    4.3819   -1.3891   -3.3621 H   0  0  0  0  0  0  0  0  0  0  0  0
    0.5782    3.3384   -1.7545 H   0  0  0  0  0  0  0  0  0  0  0  0
    3.4549    3.4703   -4.1107 S   0  0  0  0  0  0  0  0  0  0  0  0
    2.6941    3.5969   -5.3480 O   0  0  0  0  0  0  0  0  0  0  0  0
    4.3150    4.5468   -3.6436 O   0  0  0  0  0  0  0  0  0  0  0  0
    2.3159    3.2215   -2.9982 O   0  0  0  0  0  0  0  0  0  0  0  0
    7.0712   -1.4595   -3.7518 C   0  0  0  0  0  0  0  0  0  0  0  0
    7.8913   -1.3880   -4.4720 H   0  0  0  0  0  0  0  0  0  0  0  0
    7.5199   -1.5190   -2.7528 H   0  0  0  0  0  0  0  0  0  0  0  0
    6.5406   -2.3990   -3.9286 H   0  0  0  0  0  0  0  0  0  0  0  0
  1  6  2  0  0  0  0
  1  7  1  0  0  0  0
  2  8  1  6  0  0  0
  2  1  1  0  0  0  0
  3 14  1  6  0  0  0
  3  4  1  0  0  0  0
  3  2  1  0  0  0  0
  4  9  1  6  0  0  0
  4 29  1  0  0  0  0
  4  5  1  0  0  0  0
  5 25  1  0  0  0  0
  5  6  1  0  0  0  0
  6 11  1  0  0  0  0
 10  5  1  0  0  0  0
 11 12  2  0  0  0  0
 11 13  2  0  0  0  0
 15 14  1  0  0  0  0
 16 17  2  0  0  0  0
 16 21  1  0  0  0  0
 17 18  1  0  0  0  0
 18 30  1  0  0  0  0
 18 19  2  0  0  0  0
 19 24  1  0  0  0  0
 20 19  1  0  0  0  0
 20  2  1  0  0  0  0
 21 20  2  0  0  0  0
 22 16  1  0  0  0  0
 23 17  1  0  0  0  0
 26 21  1  0  0  0  0
 26 28  2  0  0  0  0
 26 29  1  0  0  0  0
 27 26  2  0  0  0  0
 30 32  1  0  0  0  0
 31 30  1  0  0  0  0
 33 30  1  0  0  0  0
M  RAD  3   3   2  14   2  15   3
M  END
