Coordinates from ORCA-job p-NO2-Ph-N2-H-OTs-B3LYPG-6-31G_dp-scan-d09-49-n400
 OpenBabel08281820503D

 33 35  0  0  1  0  0  0  0  0999 V2000
    2.0606    0.4218   -1.9468 C   0  0  0  0  0  0  0  0  0  0  0  0
    2.3790    0.3744   -3.4296 C   0  0  1  0  0  0  0  0  0  0  0  0
    1.4244    1.2764   -4.1668 C   0  0  1  0  0  0  0  0  0  0  0  0
    1.0740    2.5585   -3.5024 C   0  0  1  0  0  0  0  0  0  0  0  0
    0.4252    2.3422   -2.1472 C   0  0  0  0  0  0  0  0  0  0  0  0
    1.1726    1.2655   -1.4126 C   0  0  0  0  0  0  0  0  0  0  0  0
    2.5716   -0.2788   -1.2952 H   0  0  0  0  0  0  0  0  0  0  0  0
    2.2191   -0.6641   -3.7480 H   0  0  0  0  0  0  0  0  0  0  0  0
    0.4891    3.2149   -4.1471 H   0  0  0  0  0  0  0  0  0  0  0  0
   -0.6415    2.1153   -2.2355 H   0  0  0  0  0  0  0  0  0  0  0  0
    0.8984    1.1643    0.0329 N   0  0  0  0  0  0  0  0  0  0  0  0
    0.0363    1.9241    0.4750 O   0  0  0  0  0  0  0  0  0  0  0  0
    1.5232    0.3423    0.7009 O   0  0  0  0  0  0  0  0  0  0  0  0
    1.1395    1.0622   -5.4157 N   0  0  0  0  0  0  0  0  0  0  0  0
    0.8538    0.8393   -6.4999 N   0  0  0  0  0  0  0  0  0  0  0  0
    5.7844    2.0977   -4.1963 C   0  0  0  0  0  0  0  0  0  0  0  0
    6.6382    1.0029   -4.1164 C   0  0  0  0  0  0  0  0  0  0  0  0
    6.1384   -0.2706   -3.8230 C   0  0  0  0  0  0  0  0  0  0  0  0
    4.7598   -0.4034   -3.6209 C   0  0  0  0  0  0  0  0  0  0  0  0
    3.8702    0.6746   -3.6954 C   0  0  0  0  0  0  0  0  0  0  0  0
    4.4095    1.9436   -3.9912 C   0  0  0  0  0  0  0  0  0  0  0  0
    6.1787    3.0857   -4.4057 H   0  0  0  0  0  0  0  0  0  0  0  0
    7.7023    1.1424   -4.2847 H   0  0  0  0  0  0  0  0  0  0  0  0
    4.3570   -1.3894   -3.3983 H   0  0  0  0  0  0  0  0  0  0  0  0
    0.5442    3.3066   -1.6572 H   0  0  0  0  0  0  0  0  0  0  0  0
    3.4559    3.4666   -4.1881 S   0  0  0  0  0  0  0  0  0  0  0  0
    2.7543    3.5209   -5.4660 O   0  0  0  0  0  0  0  0  0  0  0  0
    4.3018    4.5664   -3.7501 O   0  0  0  0  0  0  0  0  0  0  0  0
    2.2974    3.2887   -3.0686 O   0  0  0  0  0  0  0  0  0  0  0  0
    7.0575   -1.4613   -3.7050 C   0  0  0  0  0  0  0  0  0  0  0  0
    7.9186   -1.3671   -4.3723 H   0  0  0  0  0  0  0  0  0  0  0  0
    7.4452   -1.5536   -2.6835 H   0  0  0  0  0  0  0  0  0  0  0  0
    6.5397   -2.3944   -3.9436 H   0  0  0  0  0  0  0  0  0  0  0  0
  1  6  2  0  0  0  0
  1  7  1  0  0  0  0
  2  8  1  6  0  0  0
  2  1  1  0  0  0  0
  3 14  1  6  0  0  0
  3  4  1  0  0  0  0
  3  2  1  0  0  0  0
  4  9  1  6  0  0  0
  4 29  1  0  0  0  0
  4  5  1  0  0  0  0
  5 25  1  0  0  0  0
  5  6  1  0  0  0  0
  6 11  1  0  0  0  0
 10  5  1  0  0  0  0
 11 12  2  0  0  0  0
 11 13  2  0  0  0  0
 15 14  1  0  0  0  0
 16 17  2  0  0  0  0
 16 21  1  0  0  0  0
 17 18  1  0  0  0  0
 18 30  1  0  0  0  0
 18 19  2  0  0  0  0
 19 24  1  0  0  0  0
 20 19  1  0  0  0  0
 20  2  1  0  0  0  0
 21 20  2  0  0  0  0
 22 16  1  0  0  0  0
 23 17  1  0  0  0  0
 26 21  1  0  0  0  0
 26 28  2  0  0  0  0
 26 29  1  0  0  0  0
 27 26  2  0  0  0  0
 30 32  1  0  0  0  0
 31 30  1  0  0  0  0
 33 30  1  0  0  0  0
M  RAD  3   3   2  14   2  15   3
M  END
