Coordinates from ORCA-job p-NO2-Ph-N2-H-OTs-B3LYPG-6-31G_dp-scan-d09-49-n400
 OpenBabel08281820503D

 33 34  0  0  1  0  0  0  0  0999 V2000
    1.9821    0.8014   -1.6729 C   0  0  0  0  0  0  0  0  0  0  0  0
    2.5139    0.3165   -3.0005 C   0  0  1  0  0  0  0  0  0  0  0  0
    1.5089    0.6975   -4.1036 C   0  0  0  0  0  0  0  0  0  0  0  0
    0.4326    1.5436   -3.9629 C   0  0  0  0  0  0  0  0  0  0  0  0
    0.2389    2.2428   -2.7184 C   0  0  0  0  0  0  0  0  0  0  0  0
    0.9150    1.5916   -1.5597 C   0  0  0  0  0  0  0  0  0  0  0  0
    2.4887    0.4548   -0.7803 H   0  0  0  0  0  0  0  0  0  0  0  0
    2.5117   -0.7807   -2.9360 H   0  0  0  0  0  0  0  0  0  0  0  0
   -0.1838    1.7866   -4.8240 H   0  0  0  0  0  0  0  0  0  0  0  0
   -0.7621    2.6212   -2.5272 H   0  0  0  0  0  0  0  0  0  0  0  0
    0.4529    1.9798   -0.2232 N   0  0  0  0  0  0  0  0  0  0  0  0
   -0.4550    2.8116   -0.1770 O   0  0  0  0  0  0  0  0  0  0  0  0
    0.9730    1.4434    0.7502 O   0  0  0  0  0  0  0  0  0  0  0  0
    1.7540    0.2019   -5.3295 N   0  0  0  0  0  0  0  0  0  0  0  0
    2.0174   -0.2577   -6.3233 N   0  0  0  0  0  0  0  0  0  0  0  0
    5.8277    2.1512   -3.8303 C   0  0  0  0  0  0  0  0  0  0  0  0
    6.5974    1.0692   -4.2493 C   0  0  0  0  0  0  0  0  0  0  0  0
    6.0772   -0.2280   -4.2301 C   0  0  0  0  0  0  0  0  0  0  0  0
    4.7575   -0.3861   -3.7954 C   0  0  0  0  0  0  0  0  0  0  0  0
    3.9590    0.6879   -3.3697 C   0  0  0  0  0  0  0  0  0  0  0  0
    4.5137    1.9870   -3.3832 C   0  0  0  0  0  0  0  0  0  0  0  0
    6.2309    3.1579   -3.8387 H   0  0  0  0  0  0  0  0  0  0  0  0
    7.6156    1.2373   -4.5897 H   0  0  0  0  0  0  0  0  0  0  0  0
    4.3348   -1.3899   -3.7788 H   0  0  0  0  0  0  0  0  0  0  0  0
    0.9711    3.1385   -2.9725 H   0  0  0  0  0  0  0  0  0  0  0  0
    3.6998    3.5101   -2.7768 S   0  0  0  0  0  0  0  0  0  0  0  0
    2.4045    3.5569   -3.5793 O   0  0  0  0  0  0  0  0  0  0  0  0
    4.6147    4.6040   -3.1299 O   0  0  0  0  0  0  0  0  0  0  0  0
    3.4599    3.2718   -1.3386 O   0  0  0  0  0  0  0  0  0  0  0  0
    6.9127   -1.4173   -4.6376 C   0  0  0  0  0  0  0  0  0  0  0  0
    7.6018   -1.1606   -5.4477 H   0  0  0  0  0  0  0  0  0  0  0  0
    7.5202   -1.7760   -3.7975 H   0  0  0  0  0  0  0  0  0  0  0  0
    6.2915   -2.2537   -4.9710 H   0  0  0  0  0  0  0  0  0  0  0  0
  1  6  2  0  0  0  0
  1  7  1  0  0  0  0
  2  8  1  1  0  0  0
  2  1  1  0  0  0  0
  3  4  2  0  0  0  0
  3  2  1  0  0  0  0
  4  5  1  0  0  0  0
  5 10  1  0  0  0  0
  5  6  1  0  0  0  0
  6 11  1  0  0  0  0
  9  4  1  0  0  0  0
 11 12  2  0  0  0  0
 11 13  2  0  0  0  0
 14  3  1  0  0  0  0
 15 14  1  0  0  0  0
 16 21  2  0  0  0  0
 17 18  2  0  0  0  0
 17 16  1  0  0  0  0
 18 19  1  0  0  0  0
 19 24  1  0  0  0  0
 19 20  2  0  0  0  0
 20  2  1  0  0  0  0
 21 20  1  0  0  0  0
 21 26  1  0  0  0  0
 22 16  1  0  0  0  0
 23 17  1  0  0  0  0
 25  5  1  0  0  0  0
 26 29  1  0  0  0  0
 27 26  2  0  0  0  0
 28 26  2  0  0  0  0
 30 18  1  0  0  0  0
 30 32  1  0  0  0  0
 31 30  1  0  0  0  0
 33 30  1  0  0  0  0
M  RAD  3  14   2  15   3  29   2
M  END
