Coordinates from ORCA-job p-NO2-Ph-N2-H-OTs-B3LYPG-6-31G_dp-scan-d09-49-n400
 OpenBabel08281820503D

 33 35  0  0  1  0  0  0  0  0999 V2000
    2.0761    0.6362   -1.8367 C   0  0  0  0  0  0  0  0  0  0  0  0
    2.4319    0.3610   -3.2774 C   0  0  1  0  0  0  0  0  0  0  0  0
    1.4615    1.0760   -4.2002 C   0  0  1  0  0  0  0  0  0  0  0  0
    1.0459    2.4755   -3.8807 C   0  0  1  0  0  0  0  0  0  0  0  0
    0.3217    2.3576   -2.4346 C   0  0  0  0  0  0  0  0  0  0  0  0
    1.1359    1.5148   -1.4918 C   0  0  0  0  0  0  0  0  0  0  0  0
    2.6232    0.1071   -1.0652 H   0  0  0  0  0  0  0  0  0  0  0  0
    2.3149   -0.7194   -3.4308 H   0  0  0  0  0  0  0  0  0  0  0  0
    0.3071    2.8547   -4.5844 H   0  0  0  0  0  0  0  0  0  0  0  0
   -0.5340    1.7447   -2.7596 H   0  0  0  0  0  0  0  0  0  0  0  0
    0.8295    1.6629   -0.0550 N   0  0  0  0  0  0  0  0  0  0  0  0
   -0.1388    2.3695    0.2348 O   0  0  0  0  0  0  0  0  0  0  0  0
    1.5235    1.0618    0.7603 O   0  0  0  0  0  0  0  0  0  0  0  0
    1.2695    0.6109   -5.3984 N   0  0  0  0  0  0  0  0  0  0  0  0
    1.0639    0.1660   -6.4339 N   0  0  0  0  0  0  0  0  0  0  0  0
    5.8367    2.1099   -3.9465 C   0  0  0  0  0  0  0  0  0  0  0  0
    6.6603    0.9982   -4.1092 C   0  0  0  0  0  0  0  0  0  0  0  0
    6.1424   -0.2942   -3.9948 C   0  0  0  0  0  0  0  0  0  0  0  0
    4.7732   -0.4311   -3.7280 C   0  0  0  0  0  0  0  0  0  0  0  0
    3.9188    0.6612   -3.5522 C   0  0  0  0  0  0  0  0  0  0  0  0
    4.4795    1.9502   -3.6614 C   0  0  0  0  0  0  0  0  0  0  0  0
    6.2360    3.1122   -4.0508 H   0  0  0  0  0  0  0  0  0  0  0  0
    7.7126    1.1428   -4.3359 H   0  0  0  0  0  0  0  0  0  0  0  0
    4.3531   -1.4326   -3.6596 H   0  0  0  0  0  0  0  0  0  0  0  0
   -0.2104    3.1349   -1.8057 H   0  0  0  0  0  0  0  0  0  0  0  0
    3.5786    3.4952   -3.3977 S   0  0  0  0  0  0  0  0  0  0  0  0
    2.2633    3.3409   -4.3529 O   0  0  0  0  0  0  0  0  0  0  0  0
    4.3526    4.5650   -4.0115 O   0  0  0  0  0  0  0  0  0  0  0  0
    3.1560    3.5831   -2.0018 O   0  0  0  0  0  0  0  0  0  0  0  0
    7.0239   -1.5101   -4.1385 C   0  0  0  0  0  0  0  0  0  0  0  0
    7.9022   -1.2967   -4.7536 H   0  0  0  0  0  0  0  0  0  0  0  0
    7.3836   -1.8469   -3.1589 H   0  0  0  0  0  0  0  0  0  0  0  0
    6.4840   -2.3467   -4.5914 H   0  0  0  0  0  0  0  0  0  0  0  0
  1  6  2  0  0  0  0
  1  7  1  0  0  0  0
  2  8  1  6  0  0  0
  2  1  1  0  0  0  0
  3 14  1  6  0  0  0
  3  4  1  0  0  0  0
  3  2  1  0  0  0  0
  4  9  1  6  0  0  0
  4  5  1  0  0  0  0
  5 25  1  0  0  0  0
  5  6  1  0  0  0  0
  6 11  1  0  0  0  0
 10  5  1  0  0  0  0
 11 12  2  0  0  0  0
 11 13  2  0  0  0  0
 15 14  1  0  0  0  0
 16 21  2  0  0  0  0
 17 18  2  0  0  0  0
 17 16  1  0  0  0  0
 18 19  1  0  0  0  0
 19 24  1  0  0  0  0
 19 20  2  0  0  0  0
 20  2  1  0  0  0  0
 21 20  1  0  0  0  0
 21 26  1  0  0  0  0
 22 16  1  0  0  0  0
 23 17  1  0  0  0  0
 26 29  2  0  0  0  0
 27  4  1  0  0  0  0
 27 26  1  0  0  0  0
 28 26  2  0  0  0  0
 30 18  1  0  0  0  0
 30 32  1  0  0  0  0
 31 30  1  0  0  0  0
 33 30  1  0  0  0  0
M  RAD  3   3   2  14   2  15   3
M  END
