Coordinates from ORCA-job p-NO2-Ph-N2-H-OTs-B3LYPG-6-31G_dp-scan-d09-49-n400
 OpenBabel08281820503D

 33 35  0  0  1  0  0  0  0  0999 V2000
    1.9979    0.5328   -1.8399 C   0  0  0  0  0  0  0  0  0  0  0  0
    2.4229    0.2636   -3.2645 C   0  0  1  0  0  0  0  0  0  0  0  0
    1.4851    0.9772   -4.2146 C   0  0  1  0  0  0  0  0  0  0  0  0
    1.0349    2.3582   -3.8922 C   0  0  1  0  0  0  0  0  0  0  0  0
    0.4791    2.4590   -2.4635 C   0  0  0  0  0  0  0  0  0  0  0  0
    1.1238    1.4865   -1.5214 C   0  0  0  0  0  0  0  0  0  0  0  0
    2.4314   -0.0717   -1.0514 H   0  0  0  0  0  0  0  0  0  0  0  0
    2.3318   -0.8175   -3.4255 H   0  0  0  0  0  0  0  0  0  0  0  0
    0.2765    2.6928   -4.6013 H   0  0  0  0  0  0  0  0  0  0  0  0
   -0.6030    2.2886   -2.4907 H   0  0  0  0  0  0  0  0  0  0  0  0
    0.7474    1.6381   -0.1041 N   0  0  0  0  0  0  0  0  0  0  0  0
   -0.0992    2.4972    0.1439 O   0  0  0  0  0  0  0  0  0  0  0  0
    1.2664    0.8987    0.7296 O   0  0  0  0  0  0  0  0  0  0  0  0
    1.3113    0.5073   -5.4142 N   0  0  0  0  0  0  0  0  0  0  0  0
    1.1252    0.0592   -6.4513 N   0  0  0  0  0  0  0  0  0  0  0  0
    5.7514    2.1252   -3.9777 C   0  0  0  0  0  0  0  0  0  0  0  0
    6.6118    1.0435   -4.1528 C   0  0  0  0  0  0  0  0  0  0  0  0
    6.1485   -0.2660   -4.0066 C   0  0  0  0  0  0  0  0  0  0  0  0
    4.7923   -0.4523   -3.7046 C   0  0  0  0  0  0  0  0  0  0  0  0
    3.9015    0.6081   -3.5186 C   0  0  0  0  0  0  0  0  0  0  0  0
    4.4091    1.9175   -3.6531 C   0  0  0  0  0  0  0  0  0  0  0  0
    6.1119    3.1403   -4.0975 H   0  0  0  0  0  0  0  0  0  0  0  0
    7.6508    1.2261   -4.4107 H   0  0  0  0  0  0  0  0  0  0  0  0
    4.4114   -1.4679   -3.6196 H   0  0  0  0  0  0  0  0  0  0  0  0
    0.6348    3.4784   -2.1070 H   0  0  0  0  0  0  0  0  0  0  0  0
    3.4984    3.4423   -3.3042 S   0  0  0  0  0  0  0  0  0  0  0  0
    2.1018    3.3518   -4.1570 O   0  0  0  0  0  0  0  0  0  0  0  0
    4.2086    4.5416   -3.9404 O   0  0  0  0  0  0  0  0  0  0  0  0
    3.1944    3.4872   -1.8753 O   0  0  0  0  0  0  0  0  0  0  0  0
    7.0724   -1.4491   -4.1565 C   0  0  0  0  0  0  0  0  0  0  0  0
    7.9392   -1.2039   -4.7756 H   0  0  0  0  0  0  0  0  0  0  0  0
    7.4481   -1.7738   -3.1789 H   0  0  0  0  0  0  0  0  0  0  0  0
    6.5604   -2.3043   -4.6074 H   0  0  0  0  0  0  0  0  0  0  0  0
  1  6  2  0  0  0  0
  1  7  1  0  0  0  0
  2  8  1  6  0  0  0
  2  1  1  0  0  0  0
  3 14  1  6  0  0  0
  3  4  1  0  0  0  0
  3  2  1  0  0  0  0
  4  9  1  6  0  0  0
  4  5  1  0  0  0  0
  5 25  1  0  0  0  0
  5  6  1  0  0  0  0
  6 11  1  0  0  0  0
 10  5  1  0  0  0  0
 11 12  2  0  0  0  0
 11 13  2  0  0  0  0
 15 14  1  0  0  0  0
 16 21  2  0  0  0  0
 17 18  2  0  0  0  0
 17 16  1  0  0  0  0
 18 19  1  0  0  0  0
 19 24  1  0  0  0  0
 19 20  2  0  0  0  0
 20  2  1  0  0  0  0
 21 20  1  0  0  0  0
 21 26  1  0  0  0  0
 22 16  1  0  0  0  0
 23 17  1  0  0  0  0
 26 29  2  0  0  0  0
 27  4  1  0  0  0  0
 27 26  1  0  0  0  0
 28 26  2  0  0  0  0
 30 18  1  0  0  0  0
 30 32  1  0  0  0  0
 31 30  1  0  0  0  0
 33 30  1  0  0  0  0
M  RAD  3   3   2  14   2  15   3
M  END
