Coordinates from ORCA-job p-NO2-Ph-N2-H-OTs-B3LYPG-6-31G_dp-scan-d09-49-n400
 OpenBabel08281820503D

 33 35  0  0  1  0  0  0  0  0999 V2000
    2.0459    0.4313   -1.9192 C   0  0  0  0  0  0  0  0  0  0  0  0
    2.3882    0.3651   -3.3975 C   0  0  1  0  0  0  0  0  0  0  0  0
    1.4401    1.2527   -4.1592 C   0  0  1  0  0  0  0  0  0  0  0  0
    1.0849    2.5357   -3.5050 C   0  0  1  0  0  0  0  0  0  0  0  0
    0.4111    2.3465   -2.1640 C   0  0  0  0  0  0  0  0  0  0  0  0
    1.1434    1.2747   -1.4069 C   0  0  0  0  0  0  0  0  0  0  0  0
    2.5466   -0.2624   -1.2523 H   0  0  0  0  0  0  0  0  0  0  0  0
    2.2369   -0.6791   -3.7007 H   0  0  0  0  0  0  0  0  0  0  0  0
    0.5356    3.2075   -4.1636 H   0  0  0  0  0  0  0  0  0  0  0  0
   -0.6601    2.1449   -2.2494 H   0  0  0  0  0  0  0  0  0  0  0  0
    0.8430    1.1834    0.0335 N   0  0  0  0  0  0  0  0  0  0  0  0
   -0.0302    1.9432    0.4528 O   0  0  0  0  0  0  0  0  0  0  0  0
    1.4504    0.3613    0.7175 O   0  0  0  0  0  0  0  0  0  0  0  0
    1.1902    1.0389   -5.4156 N   0  0  0  0  0  0  0  0  0  0  0  0
    0.9326    0.8139   -6.5065 N   0  0  0  0  0  0  0  0  0  0  0  0
    5.7791    2.0930   -4.2281 C   0  0  0  0  0  0  0  0  0  0  0  0
    6.6356    0.9996   -4.1621 C   0  0  0  0  0  0  0  0  0  0  0  0
    6.1444   -0.2716   -3.8447 C   0  0  0  0  0  0  0  0  0  0  0  0
    4.7710   -0.4042   -3.6095 C   0  0  0  0  0  0  0  0  0  0  0  0
    3.8776    0.6717   -3.6715 C   0  0  0  0  0  0  0  0  0  0  0  0
    4.4097    1.9398   -3.9891 C   0  0  0  0  0  0  0  0  0  0  0  0
    6.1685    3.0802   -4.4502 H   0  0  0  0  0  0  0  0  0  0  0  0
    7.6950    1.1385   -4.3580 H   0  0  0  0  0  0  0  0  0  0  0  0
    4.3749   -1.3894   -3.3724 H   0  0  0  0  0  0  0  0  0  0  0  0
    0.5710    3.3306   -1.7285 H   0  0  0  0  0  0  0  0  0  0  0  0
    3.4548    3.4692   -4.1321 S   0  0  0  0  0  0  0  0  0  0  0  0
    2.7086    3.5749   -5.3802 O   0  0  0  0  0  0  0  0  0  0  0  0
    4.3113    4.5526   -3.6743 O   0  0  0  0  0  0  0  0  0  0  0  0
    2.3110    3.2406   -3.0169 O   0  0  0  0  0  0  0  0  0  0  0  0
    7.0677   -1.4600   -3.7390 C   0  0  0  0  0  0  0  0  0  0  0  0
    7.8976   -1.3834   -4.4473 H   0  0  0  0  0  0  0  0  0  0  0  0
    7.5024   -1.5267   -2.7344 H   0  0  0  0  0  0  0  0  0  0  0  0
    6.5396   -2.3982   -3.9298 H   0  0  0  0  0  0  0  0  0  0  0  0
  1  6  2  0  0  0  0
  1  7  1  0  0  0  0
  2  8  1  6  0  0  0
  2  1  1  0  0  0  0
  3 14  1  6  0  0  0
  3  4  1  0  0  0  0
  3  2  1  0  0  0  0
  4  9  1  6  0  0  0
  4 29  1  0  0  0  0
  4  5  1  0  0  0  0
  5 25  1  0  0  0  0
  5  6  1  0  0  0  0
  6 11  1  0  0  0  0
 10  5  1  0  0  0  0
 11 12  2  0  0  0  0
 11 13  2  0  0  0  0
 15 14  1  0  0  0  0
 16 17  2  0  0  0  0
 16 21  1  0  0  0  0
 17 18  1  0  0  0  0
 18 30  1  0  0  0  0
 18 19  2  0  0  0  0
 19 24  1  0  0  0  0
 20 19  1  0  0  0  0
 20  2  1  0  0  0  0
 21 20  2  0  0  0  0
 22 16  1  0  0  0  0
 23 17  1  0  0  0  0
 26 21  1  0  0  0  0
 26 28  2  0  0  0  0
 26 29  1  0  0  0  0
 27 26  2  0  0  0  0
 30 32  1  0  0  0  0
 31 30  1  0  0  0  0
 33 30  1  0  0  0  0
M  RAD  3   3   2  14   2  15   3
M  END
