Coordinates from ORCA-job p-NO2-Ph-N2-H-OTs-B3LYPG-6-31G_dp-scan-d09-49-n400
 OpenBabel08281820503D

 33 35  0  0  1  0  0  0  0  0999 V2000
    2.0953    0.4135   -1.9995 C   0  0  0  0  0  0  0  0  0  0  0  0
    2.3609    0.4001   -3.4911 C   0  0  1  0  0  0  0  0  0  0  0  0
    1.3935    1.3304   -4.1795 C   0  0  1  0  0  0  0  0  0  0  0  0
    1.0513    2.6103   -3.4932 C   0  0  1  0  0  0  0  0  0  0  0  0
    0.4443    2.3274   -2.1116 C   0  0  0  0  0  0  0  0  0  0  0  0
    1.2373    1.2554   -1.4193 C   0  0  0  0  0  0  0  0  0  0  0  0
    2.6340   -0.2953   -1.3806 H   0  0  0  0  0  0  0  0  0  0  0  0
    2.1808   -0.6265   -3.8367 H   0  0  0  0  0  0  0  0  0  0  0  0
    0.3878    3.2287   -4.1014 H   0  0  0  0  0  0  0  0  0  0  0  0
   -0.5972    2.0096   -2.2420 H   0  0  0  0  0  0  0  0  0  0  0  0
    1.0246    1.1348    0.0361 N   0  0  0  0  0  0  0  0  0  0  0  0
    0.1634    1.8684    0.5229 O   0  0  0  0  0  0  0  0  0  0  0  0
    1.6905    0.3164    0.6673 O   0  0  0  0  0  0  0  0  0  0  0  0
    1.0366    1.1155   -5.4097 N   0  0  0  0  0  0  0  0  0  0  0  0
    0.6952    0.8972   -6.4786 N   0  0  0  0  0  0  0  0  0  0  0  0
    5.7941    2.1060   -4.1331 C   0  0  0  0  0  0  0  0  0  0  0  0
    6.6394    1.0071   -4.0244 C   0  0  0  0  0  0  0  0  0  0  0  0
    6.1220   -0.2698   -3.7793 C   0  0  0  0  0  0  0  0  0  0  0  0
    4.7353   -0.3999   -3.6435 C   0  0  0  0  0  0  0  0  0  0  0  0
    3.8555    0.6842   -3.7439 C   0  0  0  0  0  0  0  0  0  0  0  0
    4.4102    1.9525   -3.9980 C   0  0  0  0  0  0  0  0  0  0  0  0
    6.1992    3.0944   -4.3177 H   0  0  0  0  0  0  0  0  0  0  0  0
    7.7111    1.1454   -4.1362 H   0  0  0  0  0  0  0  0  0  0  0  0
    4.3189   -1.3864   -3.4495 H   0  0  0  0  0  0  0  0  0  0  0  0
    0.4160    3.2285   -1.4909 H   0  0  0  0  0  0  0  0  0  0  0  0
    3.4722    3.4635   -4.3105 S   0  0  0  0  0  0  0  0  0  0  0  0
    2.9064    3.4252   -5.6596 O   0  0  0  0  0  0  0  0  0  0  0  0
    4.2930    4.5888   -3.8887 O   0  0  0  0  0  0  0  0  0  0  0  0
    2.2672    3.3933   -3.1968 O   0  0  0  0  0  0  0  0  0  0  0  0
    7.0300   -1.4666   -3.6374 C   0  0  0  0  0  0  0  0  0  0  0  0
    7.9358   -1.3529   -4.2387 H   0  0  0  0  0  0  0  0  0  0  0  0
    7.3440   -1.5952   -2.5947 H   0  0  0  0  0  0  0  0  0  0  0  0
    6.5295   -2.3892   -3.9441 H   0  0  0  0  0  0  0  0  0  0  0  0
  1  6  2  0  0  0  0
  1  7  1  0  0  0  0
  2  8  1  6  0  0  0
  2  1  1  0  0  0  0
  3 14  1  6  0  0  0
  3  4  1  0  0  0  0
  3  2  1  0  0  0  0
  4  9  1  6  0  0  0
  4 29  1  0  0  0  0
  4  5  1  0  0  0  0
  5 25  1  0  0  0  0
  5  6  1  0  0  0  0
  6 11  1  0  0  0  0
 10  5  1  0  0  0  0
 11 12  2  0  0  0  0
 11 13  2  0  0  0  0
 15 14  1  0  0  0  0
 16 17  2  0  0  0  0
 16 21  1  0  0  0  0
 17 18  1  0  0  0  0
 18 19  2  0  0  0  0
 18 30  1  0  0  0  0
 19 24  1  0  0  0  0
 20 19  1  0  0  0  0
 20  2  1  0  0  0  0
 21 20  2  0  0  0  0
 22 16  1  0  0  0  0
 23 17  1  0  0  0  0
 26 21  1  0  0  0  0
 26 28  2  0  0  0  0
 26 29  1  0  0  0  0
 27 26  2  0  0  0  0
 30 32  1  0  0  0  0
 31 30  1  0  0  0  0
 33 30  1  0  0  0  0
M  RAD  3   3   2  14   2  15   3
M  END
