Coordinates from ORCA-job p-NO2-Ph-N2-H-OTs-B3LYPG-6-31G_dp-scan-d09-49-n400
 OpenBabel08281820503D

 33 35  0  0  1  0  0  0  0  0999 V2000
    2.0982    0.4141   -2.0019 C   0  0  0  0  0  0  0  0  0  0  0  0
    2.3599    0.4019   -3.4941 C   0  0  1  0  0  0  0  0  0  0  0  0
    1.3920    1.3336   -4.1799 C   0  0  1  0  0  0  0  0  0  0  0  0
    1.0502    2.6136   -3.4928 C   0  0  1  0  0  0  0  0  0  0  0  0
    0.4452    2.3263   -2.1106 C   0  0  0  0  0  0  0  0  0  0  0  0
    1.2419    1.2562   -1.4195 C   0  0  0  0  0  0  0  0  0  0  0  0
    2.6393   -0.2944   -1.3846 H   0  0  0  0  0  0  0  0  0  0  0  0
    2.1781   -0.6240   -3.8408 H   0  0  0  0  0  0  0  0  0  0  0  0
    0.3814    3.2289   -4.0987 H   0  0  0  0  0  0  0  0  0  0  0  0
   -0.5931    1.9997   -2.2467 H   0  0  0  0  0  0  0  0  0  0  0  0
    1.0338    1.1360    0.0367 N   0  0  0  0  0  0  0  0  0  0  0  0
    0.1697    1.8651    0.5251 O   0  0  0  0  0  0  0  0  0  0  0  0
    1.7009    0.3170    0.6657 O   0  0  0  0  0  0  0  0  0  0  0  0
    1.0304    1.1179   -5.4086 N   0  0  0  0  0  0  0  0  0  0  0  0
    0.6854    0.8994   -6.4763 N   0  0  0  0  0  0  0  0  0  0  0  0
    5.7945    2.1063   -4.1286 C   0  0  0  0  0  0  0  0  0  0  0  0
    6.6392    1.0070   -4.0187 C   0  0  0  0  0  0  0  0  0  0  0  0
    6.1208   -0.2701   -3.7772 C   0  0  0  0  0  0  0  0  0  0  0  0
    4.7337   -0.4001   -3.6453 C   0  0  0  0  0  0  0  0  0  0  0  0
    3.8546    0.6845   -3.7467 C   0  0  0  0  0  0  0  0  0  0  0  0
    4.4102    1.9528   -3.9979 C   0  0  0  0  0  0  0  0  0  0  0  0
    6.2003    3.0948   -4.3111 H   0  0  0  0  0  0  0  0  0  0  0  0
    7.7113    1.1453   -4.1270 H   0  0  0  0  0  0  0  0  0  0  0  0
    4.3165   -1.3867   -3.4534 H   0  0  0  0  0  0  0  0  0  0  0  0
    0.4027    3.2217   -1.4820 H   0  0  0  0  0  0  0  0  0  0  0  0
    3.4738    3.4634   -4.3168 S   0  0  0  0  0  0  0  0  0  0  0  0
    2.9190    3.4219   -5.6701 O   0  0  0  0  0  0  0  0  0  0  0  0
    4.2925    4.5895   -3.8931 O   0  0  0  0  0  0  0  0  0  0  0  0
    2.2645    3.4004   -3.2056 O   0  0  0  0  0  0  0  0  0  0  0  0
    7.0281   -1.4674   -3.6346 C   0  0  0  0  0  0  0  0  0  0  0  0
    7.9346   -1.3539   -4.2350 H   0  0  0  0  0  0  0  0  0  0  0  0
    7.3410   -1.5964   -2.5917 H   0  0  0  0  0  0  0  0  0  0  0  0
    6.5276   -2.3897   -3.9422 H   0  0  0  0  0  0  0  0  0  0  0  0
  1  6  2  0  0  0  0
  1  7  1  0  0  0  0
  2  8  1  6  0  0  0
  2  1  1  0  0  0  0
  3 14  1  6  0  0  0
  3  2  1  0  0  0  0
  3  4  1  0  0  0  0
  4  9  1  6  0  0  0
  4 29  1  0  0  0  0
  4  5  1  0  0  0  0
  5 25  1  0  0  0  0
  5  6  1  0  0  0  0
  6 11  1  0  0  0  0
 10  5  1  0  0  0  0
 11 12  2  0  0  0  0
 11 13  2  0  0  0  0
 15 14  1  0  0  0  0
 16 17  2  0  0  0  0
 16 21  1  0  0  0  0
 17 18  1  0  0  0  0
 18 19  2  0  0  0  0
 18 30  1  0  0  0  0
 19 24  1  0  0  0  0
 20 19  1  0  0  0  0
 20  2  1  0  0  0  0
 21 20  2  0  0  0  0
 22 16  1  0  0  0  0
 23 17  1  0  0  0  0
 26 21  1  0  0  0  0
 26 28  2  0  0  0  0
 26 29  1  0  0  0  0
 27 26  2  0  0  0  0
 30 32  1  0  0  0  0
 31 30  1  0  0  0  0
 33 30  1  0  0  0  0
M  RAD  3   3   2  14   2  15   3
M  END
