Coordinates from ORCA-job p-NO2-Ph-N2-H-OTs-B3LYPG-6-31G_dp-scan-d09-49-n400
 OpenBabel08281820503D

 33 35  0  0  1  0  0  0  0  0999 V2000
    2.0886    0.6651   -1.8276 C   0  0  0  0  0  0  0  0  0  0  0  0
    2.4361    0.3897   -3.2698 C   0  0  1  0  0  0  0  0  0  0  0  0
    1.4620    1.1042   -4.1918 C   0  0  1  0  0  0  0  0  0  0  0  0
    1.0278    2.4889   -3.8685 C   0  0  1  0  0  0  0  0  0  0  0  0
    0.2702    2.3233   -2.4098 C   0  0  0  0  0  0  0  0  0  0  0  0
    1.1203    1.5097   -1.4747 C   0  0  0  0  0  0  0  0  0  0  0  0
    2.6623    0.1580   -1.0607 H   0  0  0  0  0  0  0  0  0  0  0  0
    2.3126   -0.6910   -3.4189 H   0  0  0  0  0  0  0  0  0  0  0  0
    0.3044    2.8873   -4.5756 H   0  0  0  0  0  0  0  0  0  0  0  0
   -0.5251    1.6615   -2.7876 H   0  0  0  0  0  0  0  0  0  0  0  0
    0.8229    1.6470   -0.0343 N   0  0  0  0  0  0  0  0  0  0  0  0
   -0.1776    2.3035    0.2654 O   0  0  0  0  0  0  0  0  0  0  0  0
    1.5549    1.0841    0.7744 O   0  0  0  0  0  0  0  0  0  0  0  0
    1.3008    0.6544   -5.4022 N   0  0  0  0  0  0  0  0  0  0  0  0
    1.1219    0.2199   -6.4462 N   0  0  0  0  0  0  0  0  0  0  0  0
    5.8523    2.1054   -3.9680 C   0  0  0  0  0  0  0  0  0  0  0  0
    6.6663    0.9850   -4.1210 C   0  0  0  0  0  0  0  0  0  0  0  0
    6.1379   -0.3016   -3.9927 C   0  0  0  0  0  0  0  0  0  0  0  0
    4.7683   -0.4240   -3.7210 C   0  0  0  0  0  0  0  0  0  0  0  0
    3.9240    0.6779   -3.5545 C   0  0  0  0  0  0  0  0  0  0  0  0
    4.4945    1.9610   -3.6789 C   0  0  0  0  0  0  0  0  0  0  0  0
    6.2592    3.1034   -4.0829 H   0  0  0  0  0  0  0  0  0  0  0  0
    7.7194    1.1183   -4.3512 H   0  0  0  0  0  0  0  0  0  0  0  0
    4.3399   -1.4211   -3.6412 H   0  0  0  0  0  0  0  0  0  0  0  0
   -0.3562    3.0220   -1.7466 H   0  0  0  0  0  0  0  0  0  0  0  0
    3.6009    3.5145   -3.4368 S   0  0  0  0  0  0  0  0  0  0  0  0
    2.3047    3.3598   -4.4061 O   0  0  0  0  0  0  0  0  0  0  0  0
    4.3991    4.5754   -4.0376 O   0  0  0  0  0  0  0  0  0  0  0  0
    3.1614    3.6054   -2.0454 O   0  0  0  0  0  0  0  0  0  0  0  0
    7.0087   -1.5264   -4.1275 C   0  0  0  0  0  0  0  0  0  0  0  0
    7.8875   -1.3255   -4.7460 H   0  0  0  0  0  0  0  0  0  0  0  0
    7.3674   -1.8584   -3.1460 H   0  0  0  0  0  0  0  0  0  0  0  0
    6.4610   -2.3621   -4.5729 H   0  0  0  0  0  0  0  0  0  0  0  0
  1  6  2  0  0  0  0
  1  7  1  0  0  0  0
  2  8  1  6  0  0  0
  2  1  1  0  0  0  0
  3 14  1  6  0  0  0
  3  4  1  0  0  0  0
  3  2  1  0  0  0  0
  4  9  1  6  0  0  0
  4  5  1  0  0  0  0
  5 25  1  0  0  0  0
  5  6  1  0  0  0  0
  6 11  1  0  0  0  0
 10  5  1  0  0  0  0
 11 12  2  0  0  0  0
 11 13  2  0  0  0  0
 15 14  1  0  0  0  0
 16 21  2  0  0  0  0
 17 18  2  0  0  0  0
 17 16  1  0  0  0  0
 18 19  1  0  0  0  0
 19 24  1  0  0  0  0
 19 20  2  0  0  0  0
 20  2  1  0  0  0  0
 21 20  1  0  0  0  0
 21 26  1  0  0  0  0
 22 16  1  0  0  0  0
 23 17  1  0  0  0  0
 26 29  2  0  0  0  0
 27  4  1  0  0  0  0
 27 26  1  0  0  0  0
 28 26  2  0  0  0  0
 30 18  1  0  0  0  0
 30 32  1  0  0  0  0
 31 30  1  0  0  0  0
 33 30  1  0  0  0  0
M  RAD  3   3   2  14   2  15   3
M  END
