Coordinates from ORCA-job p-NO2-Ph-N2-H-OTs-B3LYPG-6-31G_dp-scan-d09-49-n400
 OpenBabel08281820503D

 33 35  0  0  1  0  0  0  0  0999 V2000
    2.0623    0.6107   -1.8406 C   0  0  0  0  0  0  0  0  0  0  0  0
    2.4290    0.3357   -3.2788 C   0  0  1  0  0  0  0  0  0  0  0  0
    1.4628    1.0503   -4.2046 C   0  0  1  0  0  0  0  0  0  0  0  0
    1.0512    2.4531   -3.8867 C   0  0  1  0  0  0  0  0  0  0  0  0
    0.3635    2.3836   -2.4505 C   0  0  0  0  0  0  0  0  0  0  0  0
    1.1438    1.5142   -1.5028 C   0  0  0  0  0  0  0  0  0  0  0  0
    2.5842    0.0628   -1.0647 H   0  0  0  0  0  0  0  0  0  0  0  0
    2.3183   -0.7448   -3.4346 H   0  0  0  0  0  0  0  0  0  0  0  0
    0.3046    2.8199   -4.5902 H   0  0  0  0  0  0  0  0  0  0  0  0
   -0.5537    1.8352   -2.7165 H   0  0  0  0  0  0  0  0  0  0  0  0
    0.8248    1.6686   -0.0702 N   0  0  0  0  0  0  0  0  0  0  0  0
   -0.1135    2.4181    0.2086 O   0  0  0  0  0  0  0  0  0  0  0  0
    1.4815    1.0349    0.7518 O   0  0  0  0  0  0  0  0  0  0  0  0
    1.2621    0.5796   -5.3988 N   0  0  0  0  0  0  0  0  0  0  0  0
    1.0492    0.1308   -6.4312 N   0  0  0  0  0  0  0  0  0  0  0  0
    5.8200    2.1135   -3.9382 C   0  0  0  0  0  0  0  0  0  0  0  0
    6.6521    1.0092   -4.1077 C   0  0  0  0  0  0  0  0  0  0  0  0
    6.1450   -0.2878   -3.9976 C   0  0  0  0  0  0  0  0  0  0  0  0
    4.7774   -0.4371   -3.7294 C   0  0  0  0  0  0  0  0  0  0  0  0
    3.9143    0.6472   -3.5472 C   0  0  0  0  0  0  0  0  0  0  0  0
    4.4646    1.9413   -3.6509 C   0  0  0  0  0  0  0  0  0  0  0  0
    6.2115    3.1193   -4.0384 H   0  0  0  0  0  0  0  0  0  0  0  0
    7.7027    1.1636   -4.3359 H   0  0  0  0  0  0  0  0  0  0  0  0
    4.3654   -1.4422   -3.6653 H   0  0  0  0  0  0  0  0  0  0  0  0
   -0.0522    3.2393   -1.8641 H   0  0  0  0  0  0  0  0  0  0  0  0
    3.5584    3.4805   -3.3696 S   0  0  0  0  0  0  0  0  0  0  0  0
    2.2287    3.3333   -4.3105 O   0  0  0  0  0  0  0  0  0  0  0  0
    4.3167    4.5574   -3.9893 O   0  0  0  0  0  0  0  0  0  0  0  0
    3.1532    3.5623   -1.9685 O   0  0  0  0  0  0  0  0  0  0  0  0
    7.0361   -1.4959   -4.1473 C   0  0  0  0  0  0  0  0  0  0  0  0
    7.9125   -1.2728   -4.7615 H   0  0  0  0  0  0  0  0  0  0  0  0
    7.3986   -1.8343   -3.1693 H   0  0  0  0  0  0  0  0  0  0  0  0
    6.5027   -2.3347   -4.6038 H   0  0  0  0  0  0  0  0  0  0  0  0
  1  6  2  0  0  0  0
  1  7  1  0  0  0  0
  2  8  1  6  0  0  0
  2  1  1  0  0  0  0
  3 14  1  6  0  0  0
  3  4  1  0  0  0  0
  3  2  1  0  0  0  0
  4  9  1  6  0  0  0
  4  5  1  0  0  0  0
  5 25  1  0  0  0  0
  5  6  1  0  0  0  0
  6 11  1  0  0  0  0
 10  5  1  0  0  0  0
 11 12  2  0  0  0  0
 11 13  2  0  0  0  0
 15 14  1  0  0  0  0
 16 21  2  0  0  0  0
 17 18  2  0  0  0  0
 17 16  1  0  0  0  0
 18 19  1  0  0  0  0
 19 24  1  0  0  0  0
 19 20  2  0  0  0  0
 20  2  1  0  0  0  0
 21 20  1  0  0  0  0
 21 26  1  0  0  0  0
 22 16  1  0  0  0  0
 23 17  1  0  0  0  0
 26 29  2  0  0  0  0
 27  4  1  0  0  0  0
 27 26  1  0  0  0  0
 28 26  2  0  0  0  0
 30 18  1  0  0  0  0
 30 32  1  0  0  0  0
 31 30  1  0  0  0  0
 33 30  1  0  0  0  0
M  RAD  3   3   2  14   2  15   3
M  END
