Coordinates from ORCA-job p-NO2-Ph-N2-H-OTs-B3LYPG-6-31G_dp-scan-d09-49-n400
 OpenBabel08281820503D

 33 34  0  0  1  0  0  0  0  0999 V2000
    1.9666    0.7401   -1.6789 C   0  0  0  0  0  0  0  0  0  0  0  0
    2.4896    0.2674   -3.0148 C   0  0  1  0  0  0  0  0  0  0  0  0
    1.4757    0.6396   -4.1152 C   0  0  0  0  0  0  0  0  0  0  0  0
    0.4155    1.5390   -3.9462 C   0  0  0  0  0  0  0  0  0  0  0  0
    0.2586    2.1974   -2.7210 C   0  0  0  0  0  0  0  0  0  0  0  0
    0.9347    1.5794   -1.5653 C   0  0  0  0  0  0  0  0  0  0  0  0
    2.4646    0.3789   -0.7875 H   0  0  0  0  0  0  0  0  0  0  0  0
    2.5185   -0.8289   -2.9545 H   0  0  0  0  0  0  0  0  0  0  0  0
   -0.1886    1.8205   -4.8038 H   0  0  0  0  0  0  0  0  0  0  0  0
   -0.6370    2.7771   -2.5302 H   0  0  0  0  0  0  0  0  0  0  0  0
    0.4982    2.0015   -0.2273 N   0  0  0  0  0  0  0  0  0  0  0  0
   -0.3761    2.8671   -0.1809 O   0  0  0  0  0  0  0  0  0  0  0  0
    1.0109    1.4580    0.7458 O   0  0  0  0  0  0  0  0  0  0  0  0
    1.6823    0.1300   -5.3234 N   0  0  0  0  0  0  0  0  0  0  0  0
    1.9029   -0.3480   -6.3271 N   0  0  0  0  0  0  0  0  0  0  0  0
    5.7977    2.1626   -3.7956 C   0  0  0  0  0  0  0  0  0  0  0  0
    6.5825    1.0934   -4.2199 C   0  0  0  0  0  0  0  0  0  0  0  0
    6.0736   -0.2067   -4.2204 C   0  0  0  0  0  0  0  0  0  0  0  0
    4.7514   -0.3809   -3.7980 C   0  0  0  0  0  0  0  0  0  0  0  0
    3.9335    0.6750   -3.3670 C   0  0  0  0  0  0  0  0  0  0  0  0
    4.4809    1.9798   -3.3638 C   0  0  0  0  0  0  0  0  0  0  0  0
    6.1954    3.1710   -3.7922 H   0  0  0  0  0  0  0  0  0  0  0  0
    7.6013    1.2770   -4.5498 H   0  0  0  0  0  0  0  0  0  0  0  0
    4.3375   -1.3879   -3.8008 H   0  0  0  0  0  0  0  0  0  0  0  0
    1.2395    3.0796   -3.0992 H   0  0  0  0  0  0  0  0  0  0  0  0
    3.6778    3.5062   -2.7562 S   0  0  0  0  0  0  0  0  0  0  0  0
    2.3818    3.6107   -3.6147 O   0  0  0  0  0  0  0  0  0  0  0  0
    4.5814    4.6017   -3.1116 O   0  0  0  0  0  0  0  0  0  0  0  0
    3.3695    3.2877   -1.3350 O   0  0  0  0  0  0  0  0  0  0  0  0
    6.9194   -1.3856   -4.6356 C   0  0  0  0  0  0  0  0  0  0  0  0
    7.6467   -1.1030   -5.4021 H   0  0  0  0  0  0  0  0  0  0  0  0
    7.4835   -1.7820   -3.7823 H   0  0  0  0  0  0  0  0  0  0  0  0
    6.3085   -2.2028   -5.0299 H   0  0  0  0  0  0  0  0  0  0  0  0
  1  6  2  0  0  0  0
  1  7  1  0  0  0  0
  2  8  1  1  0  0  0
  2  1  1  0  0  0  0
  3  4  2  0  0  0  0
  3  2  1  0  0  0  0
  4  5  1  0  0  0  0
  5 10  1  0  0  0  0
  5  6  1  0  0  0  0
  6 11  1  0  0  0  0
  9  4  1  0  0  0  0
 11 12  2  0  0  0  0
 11 13  2  0  0  0  0
 14  3  1  0  0  0  0
 15 14  1  0  0  0  0
 16 22  1  0  0  0  0
 16 21  2  0  0  0  0
 17 16  1  0  0  0  0
 18 17  2  0  0  0  0
 18 19  1  0  0  0  0
 19 20  2  0  0  0  0
 20 21  1  0  0  0  0
 20  2  1  0  0  0  0
 21 26  1  0  0  0  0
 23 17  1  0  0  0  0
 24 19  1  0  0  0  0
 26 29  2  0  0  0  0
 27 25  1  0  0  0  0
 27 26  1  0  0  0  0
 28 26  2  0  0  0  0
 30 18  1  0  0  0  0
 30 32  1  0  0  0  0
 31 30  1  0  0  0  0
 33 30  1  0  0  0  0
M  RAD  3   5   2  14   2  15   3
M  END
