Coordinates from ORCA-job p-NO2-Ph-N2-H-OTs-B3LYPG-6-31G_dp-scan-d09-49-n400
 OpenBabel08281820503D

 33 35  0  0  1  0  0  0  0  0999 V2000
    2.0410    0.4343   -1.9105 C   0  0  0  0  0  0  0  0  0  0  0  0
    2.3911    0.3623   -3.3873 C   0  0  1  0  0  0  0  0  0  0  0  0
    1.4452    1.2451   -4.1568 C   0  0  1  0  0  0  0  0  0  0  0  0
    1.0882    2.5283   -3.5057 C   0  0  1  0  0  0  0  0  0  0  0  0
    0.4061    2.3476   -2.1693 C   0  0  0  0  0  0  0  0  0  0  0  0
    1.1338    1.2774   -1.4051 C   0  0  0  0  0  0  0  0  0  0  0  0
    2.5382   -0.2573   -1.2388 H   0  0  0  0  0  0  0  0  0  0  0  0
    2.2427   -0.6838   -3.6855 H   0  0  0  0  0  0  0  0  0  0  0  0
    0.5503    3.2049   -4.1684 H   0  0  0  0  0  0  0  0  0  0  0  0
   -0.6661    2.1526   -2.2552 H   0  0  0  0  0  0  0  0  0  0  0  0
    0.8249    1.1887    0.0335 N   0  0  0  0  0  0  0  0  0  0  0  0
   -0.0493    1.9509    0.4465 O   0  0  0  0  0  0  0  0  0  0  0  0
    1.4297    0.3694    0.7232 O   0  0  0  0  0  0  0  0  0  0  0  0
    1.2064    1.0314   -5.4154 N   0  0  0  0  0  0  0  0  0  0  0  0
    0.9581    0.8061   -6.5085 N   0  0  0  0  0  0  0  0  0  0  0  0
    5.7771    2.0915   -4.2387 C   0  0  0  0  0  0  0  0  0  0  0  0
    6.6344    0.9985   -4.1770 C   0  0  0  0  0  0  0  0  0  0  0  0
    6.1461   -0.2718   -3.8517 C   0  0  0  0  0  0  0  0  0  0  0  0
    4.7746   -0.4042   -3.6058 C   0  0  0  0  0  0  0  0  0  0  0  0
    3.8801    0.6709   -3.6638 C   0  0  0  0  0  0  0  0  0  0  0  0
    4.4096    1.9387   -3.9885 C   0  0  0  0  0  0  0  0  0  0  0  0
    6.1648    3.0784   -4.4650 H   0  0  0  0  0  0  0  0  0  0  0  0
    7.6921    1.1371   -4.3818 H   0  0  0  0  0  0  0  0  0  0  0  0
    4.3807   -1.3892   -3.3639 H   0  0  0  0  0  0  0  0  0  0  0  0
    0.5769    3.3371   -1.7502 H   0  0  0  0  0  0  0  0  0  0  0  0
    3.4549    3.4701   -4.1144 S   0  0  0  0  0  0  0  0  0  0  0  0
    2.6964    3.5930   -5.3534 O   0  0  0  0  0  0  0  0  0  0  0  0
    4.3145    4.5478   -3.6490 O   0  0  0  0  0  0  0  0  0  0  0  0
    2.3151    3.2248   -3.0014 O   0  0  0  0  0  0  0  0  0  0  0  0
    7.0706   -1.4596   -3.7497 C   0  0  0  0  0  0  0  0  0  0  0  0
    7.8923   -1.3872   -4.4680 H   0  0  0  0  0  0  0  0  0  0  0  0
    7.5170   -1.5203   -2.7498 H   0  0  0  0  0  0  0  0  0  0  0  0
    6.5404   -2.3989   -3.9288 H   0  0  0  0  0  0  0  0  0  0  0  0
  1  6  2  0  0  0  0
  1  7  1  0  0  0  0
  2  8  1  6  0  0  0
  2  1  1  0  0  0  0
  3 14  1  6  0  0  0
  3  4  1  0  0  0  0
  3  2  1  0  0  0  0
  4  9  1  6  0  0  0
  4 29  1  0  0  0  0
  4  5  1  0  0  0  0
  5 25  1  0  0  0  0
  5  6  1  0  0  0  0
  6 11  1  0  0  0  0
 10  5  1  0  0  0  0
 11 12  2  0  0  0  0
 11 13  2  0  0  0  0
 15 14  1  0  0  0  0
 16 17  2  0  0  0  0
 16 21  1  0  0  0  0
 17 18  1  0  0  0  0
 18 30  1  0  0  0  0
 18 19  2  0  0  0  0
 19 24  1  0  0  0  0
 20 19  1  0  0  0  0
 20  2  1  0  0  0  0
 21 20  2  0  0  0  0
 22 16  1  0  0  0  0
 23 17  1  0  0  0  0
 26 21  1  0  0  0  0
 26 28  2  0  0  0  0
 26 29  1  0  0  0  0
 27 26  2  0  0  0  0
 30 32  1  0  0  0  0
 31 30  1  0  0  0  0
 33 30  1  0  0  0  0
M  RAD  3   3   2  14   2  15   3
M  END
