Coordinates from ORCA-job p-NO2-Ph-N2-H-OTs-B3LYPG-6-31G_dp-scan-d09-49-n400
 OpenBabel08281820503D

 33 35  0  0  1  0  0  0  0  0999 V2000
    2.0283    0.4433   -1.8866 C   0  0  0  0  0  0  0  0  0  0  0  0
    2.3995    0.3549   -3.3590 C   0  0  1  0  0  0  0  0  0  0  0  0
    1.4590    1.2241   -4.1498 C   0  0  1  0  0  0  0  0  0  0  0  0
    1.0976    2.5082   -3.5077 C   0  0  1  0  0  0  0  0  0  0  0  0
    0.3937    2.3513   -2.1835 C   0  0  0  0  0  0  0  0  0  0  0  0
    1.1096    1.2864   -1.3999 C   0  0  0  0  0  0  0  0  0  0  0  0
    2.5158   -0.2427   -1.2020 H   0  0  0  0  0  0  0  0  0  0  0  0
    2.2589   -0.6961   -3.6433 H   0  0  0  0  0  0  0  0  0  0  0  0
    0.5896    3.1965   -4.1804 H   0  0  0  0  0  0  0  0  0  0  0  0
   -0.6804    2.1720   -2.2722 H   0  0  0  0  0  0  0  0  0  0  0  0
    0.7782    1.2050    0.0337 N   0  0  0  0  0  0  0  0  0  0  0  0
   -0.1025    1.9695    0.4283 O   0  0  0  0  0  0  0  0  0  0  0  0
    1.3721    0.3897    0.7375 O   0  0  0  0  0  0  0  0  0  0  0  0
    1.2475    1.0093   -5.4129 N   0  0  0  0  0  0  0  0  0  0  0  0
    1.0241    0.7827   -6.5113 N   0  0  0  0  0  0  0  0  0  0  0  0
    5.7711    2.0875   -4.2686 C   0  0  0  0  0  0  0  0  0  0  0  0
    6.6306    0.9955   -4.2184 C   0  0  0  0  0  0  0  0  0  0  0  0
    6.1505   -0.2720   -3.8711 C   0  0  0  0  0  0  0  0  0  0  0  0
    4.7844   -0.4038   -3.5959 C   0  0  0  0  0  0  0  0  0  0  0  0
    3.8869    0.6693   -3.6434 C   0  0  0  0  0  0  0  0  0  0  0  0
    4.4096    1.9360   -3.9882 C   0  0  0  0  0  0  0  0  0  0  0  0
    6.1544    3.0734   -4.5070 H   0  0  0  0  0  0  0  0  0  0  0  0
    7.6833    1.1331   -4.4476 H   0  0  0  0  0  0  0  0  0  0  0  0
    4.3968   -1.3879   -3.3405 H   0  0  0  0  0  0  0  0  0  0  0  0
    0.5908    3.3544   -1.8081 H   0  0  0  0  0  0  0  0  0  0  0  0
    3.4564    3.4730   -4.0672 S   0  0  0  0  0  0  0  0  0  0  0  0
    2.6685    3.6453   -5.2815 O   0  0  0  0  0  0  0  0  0  0  0  0
    4.3242    4.5334   -3.5778 O   0  0  0  0  0  0  0  0  0  0  0  0
    2.3267    3.1820   -2.9622 O   0  0  0  0  0  0  0  0  0  0  0  0
    7.0780   -1.4582   -3.7783 C   0  0  0  0  0  0  0  0  0  0  0  0
    7.8816   -1.3941   -4.5177 H   0  0  0  0  0  0  0  0  0  0  0  0
    7.5494   -1.5068   -2.7891 H   0  0  0  0  0  0  0  0  0  0  0  0
    6.5441   -2.3997   -3.9328 H   0  0  0  0  0  0  0  0  0  0  0  0
  1  6  2  0  0  0  0
  1  7  1  0  0  0  0
  2  8  1  6  0  0  0
  2  1  1  0  0  0  0
  3 14  1  6  0  0  0
  3  4  1  0  0  0  0
  3  2  1  0  0  0  0
  4  9  1  6  0  0  0
  4 29  1  0  0  0  0
  4  5  1  0  0  0  0
  5 25  1  0  0  0  0
  5  6  1  0  0  0  0
  6 11  1  0  0  0  0
 10  5  1  0  0  0  0
 11 12  2  0  0  0  0
 11 13  2  0  0  0  0
 15 14  1  0  0  0  0
 16 17  2  0  0  0  0
 16 21  1  0  0  0  0
 17 18  1  0  0  0  0
 18 30  1  0  0  0  0
 18 19  2  0  0  0  0
 19 24  1  0  0  0  0
 20 19  1  0  0  0  0
 20  2  1  0  0  0  0
 21 20  2  0  0  0  0
 22 16  1  0  0  0  0
 23 17  1  0  0  0  0
 26 21  1  0  0  0  0
 26 28  2  0  0  0  0
 26 29  1  0  0  0  0
 27 26  2  0  0  0  0
 30 32  1  0  0  0  0
 31 30  1  0  0  0  0
 33 30  1  0  0  0  0
M  RAD  3   3   2  14   2  15   3
M  END
