Coordinates from ORCA-job p-NO2-Ph-N2-H-OTs-B3LYPG-6-31G_dp-scan-d09-49-n400
 OpenBabel08281820503D

 33 34  0  0  1  0  0  0  0  0999 V2000
    1.9926    0.8255   -1.6740 C   0  0  0  0  0  0  0  0  0  0  0  0
    2.5219    0.3366   -3.0000 C   0  0  1  0  0  0  0  0  0  0  0  0
    1.5418    0.7572   -4.1035 C   0  0  0  0  0  0  0  0  0  0  0  0
    0.4946    1.6241   -3.9740 C   0  0  0  0  0  0  0  0  0  0  0  0
    0.1917    2.2457   -2.6847 C   0  0  0  0  0  0  0  0  0  0  0  0
    0.9033    1.5823   -1.5488 C   0  0  0  0  0  0  0  0  0  0  0  0
    2.5140    0.4928   -0.7844 H   0  0  0  0  0  0  0  0  0  0  0  0
    2.4891   -0.7610   -2.9449 H   0  0  0  0  0  0  0  0  0  0  0  0
   -0.0797    1.9169   -4.8487 H   0  0  0  0  0  0  0  0  0  0  0  0
   -0.8730    2.4136   -2.5153 H   0  0  0  0  0  0  0  0  0  0  0  0
    0.4414    1.9410   -0.2046 N   0  0  0  0  0  0  0  0  0  0  0  0
   -0.4942    2.7420   -0.1465 O   0  0  0  0  0  0  0  0  0  0  0  0
    0.9838    1.4140    0.7616 O   0  0  0  0  0  0  0  0  0  0  0  0
    1.8224    0.3103   -5.3489 N   0  0  0  0  0  0  0  0  0  0  0  0
    2.1114   -0.1106   -6.3495 N   0  0  0  0  0  0  0  0  0  0  0  0
    5.8303    2.1353   -3.8818 C   0  0  0  0  0  0  0  0  0  0  0  0
    6.5987    1.0437   -4.2762 C   0  0  0  0  0  0  0  0  0  0  0  0
    6.0814   -0.2552   -4.2196 C   0  0  0  0  0  0  0  0  0  0  0  0
    4.7642   -0.4057   -3.7760 C   0  0  0  0  0  0  0  0  0  0  0  0
    3.9701    0.6807   -3.3734 C   0  0  0  0  0  0  0  0  0  0  0  0
    4.5194    1.9796   -3.4216 C   0  0  0  0  0  0  0  0  0  0  0  0
    6.2297    3.1432   -3.9166 H   0  0  0  0  0  0  0  0  0  0  0  0
    7.6151    1.2033   -4.6265 H   0  0  0  0  0  0  0  0  0  0  0  0
    4.3422   -1.4090   -3.7321 H   0  0  0  0  0  0  0  0  0  0  0  0
    0.7159    3.2356   -2.8338 H   0  0  0  0  0  0  0  0  0  0  0  0
    3.6968    3.5021   -2.8254 S   0  0  0  0  0  0  0  0  0  0  0  0
    2.3810    3.5087   -3.5734 O   0  0  0  0  0  0  0  0  0  0  0  0
    4.5969    4.5992   -3.2147 O   0  0  0  0  0  0  0  0  0  0  0  0
    3.5201    3.2710   -1.3740 O   0  0  0  0  0  0  0  0  0  0  0  0
    6.9190   -1.4515   -4.6017 C   0  0  0  0  0  0  0  0  0  0  0  0
    7.5450   -1.2378   -5.4737 H   0  0  0  0  0  0  0  0  0  0  0  0
    7.5925   -1.7363   -3.7840 H   0  0  0  0  0  0  0  0  0  0  0  0
    6.2990   -2.3223   -4.8333 H   0  0  0  0  0  0  0  0  0  0  0  0
  1  6  2  0  0  0  0
  1  7  1  0  0  0  0
  2  8  1  1  0  0  0
  2  1  1  0  0  0  0
  3  4  2  0  0  0  0
  3  2  1  0  0  0  0
  4  5  1  0  0  0  0
  5 10  1  0  0  0  0
  5  6  1  0  0  0  0
  6 11  1  0  0  0  0
  9  4  1  0  0  0  0
 11 12  2  0  0  0  0
 11 13  2  0  0  0  0
 14  3  1  0  0  0  0
 15 14  1  0  0  0  0
 16 21  2  0  0  0  0
 17 18  2  0  0  0  0
 17 16  1  0  0  0  0
 18 19  1  0  0  0  0
 19 24  1  0  0  0  0
 19 20  2  0  0  0  0
 20  2  1  0  0  0  0
 21 20  1  0  0  0  0
 21 26  1  0  0  0  0
 22 16  1  0  0  0  0
 23 17  1  0  0  0  0
 25  5  1  0  0  0  0
 26 29  1  0  0  0  0
 27 26  2  0  0  0  0
 28 26  2  0  0  0  0
 30 18  1  0  0  0  0
 30 32  1  0  0  0  0
 31 30  1  0  0  0  0
 33 30  1  0  0  0  0
M  RAD  3  14   2  15   3  29   2
M  END
