Coordinates from ORCA-job p-NO2-Ph-N2-H-OTs-B3LYPG-6-31G_dp-scan-d09-49-n400
 OpenBabel08281820503D

 33 34  0  0  1  0  0  0  0  0999 V2000
    1.9921    0.8282   -1.6727 C   0  0  0  0  0  0  0  0  0  0  0  0
    2.5229    0.3381   -2.9978 C   0  0  1  0  0  0  0  0  0  0  0  0
    1.5398    0.7514   -4.1023 C   0  0  0  0  0  0  0  0  0  0  0  0
    0.4840    1.6089   -3.9737 C   0  0  0  0  0  0  0  0  0  0  0  0
    0.1928    2.2430   -2.6900 C   0  0  0  0  0  0  0  0  0  0  0  0
    0.9014    1.5835   -1.5503 C   0  0  0  0  0  0  0  0  0  0  0  0
    2.5133    0.4978   -0.7821 H   0  0  0  0  0  0  0  0  0  0  0  0
    2.4928   -0.7595   -2.9396 H   0  0  0  0  0  0  0  0  0  0  0  0
   -0.0970    1.8909   -4.8475 H   0  0  0  0  0  0  0  0  0  0  0  0
   -0.8674    2.4321   -2.5173 H   0  0  0  0  0  0  0  0  0  0  0  0
    0.4381    1.9463   -0.2078 N   0  0  0  0  0  0  0  0  0  0  0  0
   -0.4967    2.7483   -0.1526 O   0  0  0  0  0  0  0  0  0  0  0  0
    0.9789    1.4211    0.7603 O   0  0  0  0  0  0  0  0  0  0  0  0
    1.8195    0.2988   -5.3456 N   0  0  0  0  0  0  0  0  0  0  0  0
    2.1091   -0.1260   -6.3445 N   0  0  0  0  0  0  0  0  0  0  0  0
    5.8330    2.1371   -3.8763 C   0  0  0  0  0  0  0  0  0  0  0  0
    6.5997    1.0458   -4.2751 C   0  0  0  0  0  0  0  0  0  0  0  0
    6.0806   -0.2524   -4.2228 C   0  0  0  0  0  0  0  0  0  0  0  0
    4.7635   -0.4026   -3.7785 C   0  0  0  0  0  0  0  0  0  0  0  0
    3.9709    0.6833   -3.3716 C   0  0  0  0  0  0  0  0  0  0  0  0
    4.5222    1.9817   -3.4160 C   0  0  0  0  0  0  0  0  0  0  0  0
    6.2338    3.1446   -3.9082 H   0  0  0  0  0  0  0  0  0  0  0  0
    7.6160    1.2052   -4.6256 H   0  0  0  0  0  0  0  0  0  0  0  0
    4.3403   -1.4055   -3.7376 H   0  0  0  0  0  0  0  0  0  0  0  0
    0.7376    3.2239   -2.8507 H   0  0  0  0  0  0  0  0  0  0  0  0
    3.7017    3.5038   -2.8167 S   0  0  0  0  0  0  0  0  0  0  0  0
    2.3876    3.5135   -3.5681 O   0  0  0  0  0  0  0  0  0  0  0  0
    4.6039    4.6005   -3.2015 O   0  0  0  0  0  0  0  0  0  0  0  0
    3.5214    3.2697   -1.3662 O   0  0  0  0  0  0  0  0  0  0  0  0
    6.9162   -1.4487   -4.6092 C   0  0  0  0  0  0  0  0  0  0  0  0
    7.5506   -1.2293   -5.4736 H   0  0  0  0  0  0  0  0  0  0  0  0
    7.5811   -1.7445   -3.7885 H   0  0  0  0  0  0  0  0  0  0  0  0
    6.2944   -2.3145   -4.8546 H   0  0  0  0  0  0  0  0  0  0  0  0
  1  6  2  0  0  0  0
  1  7  1  0  0  0  0
  2  8  1  1  0  0  0
  2  1  1  0  0  0  0
  3  4  2  0  0  0  0
  3  2  1  0  0  0  0
  4  5  1  0  0  0  0
  5 10  1  0  0  0  0
  5  6  1  0  0  0  0
  6 11  1  0  0  0  0
  9  4  1  0  0  0  0
 11 12  2  0  0  0  0
 11 13  2  0  0  0  0
 14  3  1  0  0  0  0
 15 14  1  0  0  0  0
 16 21  2  0  0  0  0
 17 18  2  0  0  0  0
 17 16  1  0  0  0  0
 18 19  1  0  0  0  0
 19 24  1  0  0  0  0
 19 20  2  0  0  0  0
 20  2  1  0  0  0  0
 21 20  1  0  0  0  0
 21 26  1  0  0  0  0
 22 16  1  0  0  0  0
 23 17  1  0  0  0  0
 25  5  1  0  0  0  0
 26 29  1  0  0  0  0
 27 26  2  0  0  0  0
 28 26  2  0  0  0  0
 30 18  1  0  0  0  0
 30 32  1  0  0  0  0
 31 30  1  0  0  0  0
 33 30  1  0  0  0  0
M  RAD  3  14   2  15   3  29   2
M  END
