Coordinates from ORCA-job p-NO2-Ph-N2-H-OTs-B3LYPG-6-31G_dp-scan-d09-49-n400
 OpenBabel08281820503D

 33 35  0  0  1  0  0  0  0  0999 V2000
    2.0667    0.6177   -1.8403 C   0  0  0  0  0  0  0  0  0  0  0  0
    2.4293    0.3425   -3.2793 C   0  0  1  0  0  0  0  0  0  0  0  0
    1.4617    1.0575   -4.2039 C   0  0  1  0  0  0  0  0  0  0  0  0
    1.0500    2.4598   -3.8854 C   0  0  1  0  0  0  0  0  0  0  0  0
    0.3521    2.3759   -2.4472 C   0  0  0  0  0  0  0  0  0  0  0  0
    1.1425    1.5146   -1.5004 C   0  0  0  0  0  0  0  0  0  0  0  0
    2.5961    0.0751   -1.0658 H   0  0  0  0  0  0  0  0  0  0  0  0
    2.3166   -0.7379   -3.4347 H   0  0  0  0  0  0  0  0  0  0  0  0
    0.3055    2.8302   -4.5887 H   0  0  0  0  0  0  0  0  0  0  0  0
   -0.5468    1.8062   -2.7311 H   0  0  0  0  0  0  0  0  0  0  0  0
    0.8274    1.6676   -0.0665 N   0  0  0  0  0  0  0  0  0  0  0  0
   -0.1161    2.4093    0.2159 O   0  0  0  0  0  0  0  0  0  0  0  0
    1.4984    1.0473    0.7540 O   0  0  0  0  0  0  0  0  0  0  0  0
    1.2623    0.5883   -5.3989 N   0  0  0  0  0  0  0  0  0  0  0  0
    1.0504    0.1405   -6.4320 N   0  0  0  0  0  0  0  0  0  0  0  0
    5.8246    2.1125   -3.9387 C   0  0  0  0  0  0  0  0  0  0  0  0
    6.6544    1.0062   -4.1066 C   0  0  0  0  0  0  0  0  0  0  0  0
    6.1442   -0.2897   -3.9967 C   0  0  0  0  0  0  0  0  0  0  0  0
    4.7760   -0.4358   -3.7298 C   0  0  0  0  0  0  0  0  0  0  0  0
    3.9153    0.6507   -3.5491 C   0  0  0  0  0  0  0  0  0  0  0  0
    4.4685    1.9435   -3.6529 C   0  0  0  0  0  0  0  0  0  0  0  0
    6.2183    3.1173   -4.0390 H   0  0  0  0  0  0  0  0  0  0  0  0
    7.7057    1.1580   -4.3335 H   0  0  0  0  0  0  0  0  0  0  0  0
    4.3617   -1.4399   -3.6655 H   0  0  0  0  0  0  0  0  0  0  0  0
   -0.1002    3.2086   -1.8484 H   0  0  0  0  0  0  0  0  0  0  0  0
    3.5632    3.4838   -3.3760 S   0  0  0  0  0  0  0  0  0  0  0  0
    2.2382    3.3343   -4.3220 O   0  0  0  0  0  0  0  0  0  0  0  0
    4.3256    4.5594   -3.9932 O   0  0  0  0  0  0  0  0  0  0  0  0
    3.1520    3.5664   -1.9766 O   0  0  0  0  0  0  0  0  0  0  0  0
    7.0328   -1.4998   -4.1450 C   0  0  0  0  0  0  0  0  0  0  0  0
    7.9100   -1.2791   -4.7589 H   0  0  0  0  0  0  0  0  0  0  0  0
    7.3940   -1.8384   -3.1665 H   0  0  0  0  0  0  0  0  0  0  0  0
    6.4978   -2.3378   -4.6012 H   0  0  0  0  0  0  0  0  0  0  0  0
  1  6  2  0  0  0  0
  1  7  1  0  0  0  0
  2  8  1  6  0  0  0
  2  1  1  0  0  0  0
  3 14  1  6  0  0  0
  3  4  1  0  0  0  0
  3  2  1  0  0  0  0
  4  9  1  6  0  0  0
  4  5  1  0  0  0  0
  5 25  1  0  0  0  0
  5  6  1  0  0  0  0
  6 11  1  0  0  0  0
 10  5  1  0  0  0  0
 11 12  2  0  0  0  0
 11 13  2  0  0  0  0
 15 14  1  0  0  0  0
 16 21  2  0  0  0  0
 17 18  2  0  0  0  0
 17 16  1  0  0  0  0
 18 19  1  0  0  0  0
 19 24  1  0  0  0  0
 19 20  2  0  0  0  0
 20  2  1  0  0  0  0
 21 20  1  0  0  0  0
 21 26  1  0  0  0  0
 22 16  1  0  0  0  0
 23 17  1  0  0  0  0
 26 29  2  0  0  0  0
 27  4  1  0  0  0  0
 27 26  1  0  0  0  0
 28 26  2  0  0  0  0
 30 18  1  0  0  0  0
 30 32  1  0  0  0  0
 31 30  1  0  0  0  0
 33 30  1  0  0  0  0
M  RAD  3   3   2  14   2  15   3
M  END
