Coordinates from ORCA-job p-NO2-Ph-N2-H-OTs-B3LYPG-6-31G_dp-scan-d09-49-n400
 OpenBabel08281820503D

 33 35  0  0  1  0  0  0  0  0999 V2000
    1.9754    0.5228   -1.8304 C   0  0  0  0  0  0  0  0  0  0  0  0
    2.4225    0.2490   -3.2481 C   0  0  1  0  0  0  0  0  0  0  0  0
    1.5022    0.9614   -4.2153 C   0  0  1  0  0  0  0  0  0  0  0  0
    1.0233    2.3271   -3.8913 C   0  0  1  0  0  0  0  0  0  0  0  0
    0.4914    2.4681   -2.4670 C   0  0  0  0  0  0  0  0  0  0  0  0
    1.1016    1.4807   -1.5214 C   0  0  0  0  0  0  0  0  0  0  0  0
    2.3909   -0.0868   -1.0361 H   0  0  0  0  0  0  0  0  0  0  0  0
    2.3348   -0.8329   -3.4056 H   0  0  0  0  0  0  0  0  0  0  0  0
    0.2749    2.6582   -4.6127 H   0  0  0  0  0  0  0  0  0  0  0  0
   -0.6004    2.4168   -2.4364 H   0  0  0  0  0  0  0  0  0  0  0  0
    0.7102    1.6347   -0.1081 N   0  0  0  0  0  0  0  0  0  0  0  0
   -0.1146    2.5162    0.1333 O   0  0  0  0  0  0  0  0  0  0  0  0
    1.2031    0.8812    0.7288 O   0  0  0  0  0  0  0  0  0  0  0  0
    1.3569    0.4958   -5.4210 N   0  0  0  0  0  0  0  0  0  0  0  0
    1.1971    0.0501   -6.4632 N   0  0  0  0  0  0  0  0  0  0  0  0
    5.7284    2.1268   -4.0025 C   0  0  0  0  0  0  0  0  0  0  0  0
    6.5947    1.0502   -4.1820 C   0  0  0  0  0  0  0  0  0  0  0  0
    6.1457   -0.2616   -4.0145 C   0  0  0  0  0  0  0  0  0  0  0  0
    4.7955   -0.4566   -3.6905 C   0  0  0  0  0  0  0  0  0  0  0  0
    3.8994    0.5981   -3.5009 C   0  0  0  0  0  0  0  0  0  0  0  0
    4.3934    1.9107   -3.6545 C   0  0  0  0  0  0  0  0  0  0  0  0
    6.0791    3.1437   -4.1347 H   0  0  0  0  0  0  0  0  0  0  0  0
    7.6278    1.2390   -4.4586 H   0  0  0  0  0  0  0  0  0  0  0  0
    4.4238   -1.4745   -3.5924 H   0  0  0  0  0  0  0  0  0  0  0  0
    0.8125    3.4808   -2.2244 H   0  0  0  0  0  0  0  0  0  0  0  0
    3.4885    3.4314   -3.2720 S   0  0  0  0  0  0  0  0  0  0  0  0
    2.0592    3.3700   -4.0741 O   0  0  0  0  0  0  0  0  0  0  0  0
    4.1808    4.5386   -3.9148 O   0  0  0  0  0  0  0  0  0  0  0  0
    3.2352    3.4586   -1.8324 O   0  0  0  0  0  0  0  0  0  0  0  0
    7.0771   -1.4383   -4.1668 C   0  0  0  0  0  0  0  0  0  0  0  0
    7.9396   -1.1880   -4.7899 H   0  0  0  0  0  0  0  0  0  0  0  0
    7.4589   -1.7592   -3.1903 H   0  0  0  0  0  0  0  0  0  0  0  0
    6.5692   -2.2977   -4.6143 H   0  0  0  0  0  0  0  0  0  0  0  0
  1  6  2  0  0  0  0
  1  7  1  0  0  0  0
  2  8  1  6  0  0  0
  2  1  1  0  0  0  0
  3 14  1  6  0  0  0
  3  4  1  0  0  0  0
  3  2  1  0  0  0  0
  4  9  1  6  0  0  0
  4  5  1  0  0  0  0
  5 10  1  0  0  0  0
  5 25  1  0  0  0  0
  5  6  1  0  0  0  0
  6 11  1  0  0  0  0
 11 12  2  0  0  0  0
 11 13  2  0  0  0  0
 15 14  1  0  0  0  0
 16 21  2  0  0  0  0
 17 18  2  0  0  0  0
 17 16  1  0  0  0  0
 18 19  1  0  0  0  0
 19 24  1  0  0  0  0
 19 20  2  0  0  0  0
 20  2  1  0  0  0  0
 21 20  1  0  0  0  0
 21 26  1  0  0  0  0
 22 16  1  0  0  0  0
 23 17  1  0  0  0  0
 26 29  2  0  0  0  0
 27  4  1  0  0  0  0
 27 26  1  0  0  0  0
 28 26  2  0  0  0  0
 30 18  1  0  0  0  0
 30 32  1  0  0  0  0
 31 30  1  0  0  0  0
 33 30  1  0  0  0  0
M  RAD  3   3   2  14   2  15   3
M  END
