Coordinates from ORCA-job p-NO2-Ph-N2-H-OTs-B3LYPG-6-31G_dp-scan-d09-49-n400
 OpenBabel08281820503D

 33 35  0  0  1  0  0  0  0  0999 V2000
    2.0809    0.6479   -1.8336 C   0  0  0  0  0  0  0  0  0  0  0  0
    2.4340    0.3724   -3.2747 C   0  0  1  0  0  0  0  0  0  0  0  0
    1.4623    1.0872   -4.1972 C   0  0  1  0  0  0  0  0  0  0  0  0
    1.0423    2.4833   -3.8775 C   0  0  1  0  0  0  0  0  0  0  0  0
    0.3015    2.3454   -2.4261 C   0  0  0  0  0  0  0  0  0  0  0  0
    1.1295    1.5134   -1.4861 C   0  0  0  0  0  0  0  0  0  0  0  0
    2.6377    0.1270   -1.0635 H   0  0  0  0  0  0  0  0  0  0  0  0
    2.3147   -0.7081   -3.4263 H   0  0  0  0  0  0  0  0  0  0  0  0
    0.3080    2.8682   -4.5822 H   0  0  0  0  0  0  0  0  0  0  0  0
   -0.5290    1.7112   -2.7745 H   0  0  0  0  0  0  0  0  0  0  0  0
    0.8254    1.6561   -0.0479 N   0  0  0  0  0  0  0  0  0  0  0  0
   -0.1529    2.3472    0.2461 O   0  0  0  0  0  0  0  0  0  0  0  0
    1.5370    1.0732    0.7653 O   0  0  0  0  0  0  0  0  0  0  0  0
    1.2775    0.6255   -5.3982 N   0  0  0  0  0  0  0  0  0  0  0  0
    1.0781    0.1828   -6.4357 N   0  0  0  0  0  0  0  0  0  0  0  0
    5.8439    2.1083   -3.9533 C   0  0  0  0  0  0  0  0  0  0  0  0
    6.6636    0.9933   -4.1129 C   0  0  0  0  0  0  0  0  0  0  0  0
    6.1413   -0.2969   -3.9943 C   0  0  0  0  0  0  0  0  0  0  0  0
    4.7719   -0.4283   -3.7260 C   0  0  0  0  0  0  0  0  0  0  0  0
    3.9214    0.6678   -3.5531 C   0  0  0  0  0  0  0  0  0  0  0  0
    4.4863    1.9543   -3.6671 C   0  0  0  0  0  0  0  0  0  0  0  0
    6.2463    3.1090   -4.0610 H   0  0  0  0  0  0  0  0  0  0  0  0
    7.7163    1.1335   -4.3406 H   0  0  0  0  0  0  0  0  0  0  0  0
    4.3484   -1.4281   -3.6540 H   0  0  0  0  0  0  0  0  0  0  0  0
   -0.2729    3.0889   -1.7807 H   0  0  0  0  0  0  0  0  0  0  0  0
    3.5881    3.5019   -3.4109 S   0  0  0  0  0  0  0  0  0  0  0  0
    2.2796    3.3467   -4.3726 O   0  0  0  0  0  0  0  0  0  0  0  0
    4.3701    4.5689   -4.0203 O   0  0  0  0  0  0  0  0  0  0  0  0
    3.1580    3.5908   -2.0172 O   0  0  0  0  0  0  0  0  0  0  0  0
    7.0185   -1.5163   -4.1353 C   0  0  0  0  0  0  0  0  0  0  0  0
    7.8970   -1.3076   -4.7517 H   0  0  0  0  0  0  0  0  0  0  0  0
    7.3779   -1.8518   -3.1552 H   0  0  0  0  0  0  0  0  0  0  0  0
    6.4754   -2.3523   -4.5857 H   0  0  0  0  0  0  0  0  0  0  0  0
  1  6  2  0  0  0  0
  1  7  1  0  0  0  0
  2  8  1  6  0  0  0
  2  1  1  0  0  0  0
  3 14  1  6  0  0  0
  3  4  1  0  0  0  0
  3  2  1  0  0  0  0
  4  9  1  6  0  0  0
  4  5  1  0  0  0  0
  5 25  1  0  0  0  0
  5  6  1  0  0  0  0
  6 11  1  0  0  0  0
 10  5  1  0  0  0  0
 11 12  2  0  0  0  0
 11 13  2  0  0  0  0
 15 14  1  0  0  0  0
 16 21  2  0  0  0  0
 17 18  2  0  0  0  0
 17 16  1  0  0  0  0
 18 19  1  0  0  0  0
 19 24  1  0  0  0  0
 19 20  2  0  0  0  0
 20  2  1  0  0  0  0
 21 20  1  0  0  0  0
 21 26  1  0  0  0  0
 22 16  1  0  0  0  0
 23 17  1  0  0  0  0
 26 29  2  0  0  0  0
 27  4  1  0  0  0  0
 27 26  1  0  0  0  0
 28 26  2  0  0  0  0
 30 18  1  0  0  0  0
 30 32  1  0  0  0  0
 31 30  1  0  0  0  0
 33 30  1  0  0  0  0
M  RAD  3   3   2  14   2  15   3
M  END
