Coordinates from ORCA-job p-NO2-Ph-N2-H-OTs-B3LYPG-6-31G_dp-scan-d09-49-n400
 OpenBabel08281820503D

 33 34  0  0  1  0  0  0  0  0999 V2000
    1.9803    0.7965   -1.6729 C   0  0  0  0  0  0  0  0  0  0  0  0
    2.5124    0.3127   -3.0008 C   0  0  1  0  0  0  0  0  0  0  0  0
    1.5063    0.6921   -4.1038 C   0  0  0  0  0  0  0  0  0  0  0  0
    0.4312    1.5416   -3.9619 C   0  0  0  0  0  0  0  0  0  0  0  0
    0.2442    2.2429   -2.7204 C   0  0  0  0  0  0  0  0  0  0  0  0
    0.9170    1.5919   -1.5605 C   0  0  0  0  0  0  0  0  0  0  0  0
    2.4844    0.4470   -0.7800 H   0  0  0  0  0  0  0  0  0  0  0  0
    2.5132   -0.7845   -2.9364 H   0  0  0  0  0  0  0  0  0  0  0  0
   -0.1857    1.7850   -4.8225 H   0  0  0  0  0  0  0  0  0  0  0  0
   -0.7502    2.6376   -2.5289 H   0  0  0  0  0  0  0  0  0  0  0  0
    0.4551    1.9823   -0.2244 N   0  0  0  0  0  0  0  0  0  0  0  0
   -0.4499    2.8173   -0.1791 O   0  0  0  0  0  0  0  0  0  0  0  0
    0.9728    1.4444    0.7494 O   0  0  0  0  0  0  0  0  0  0  0  0
    1.7477    0.1930   -5.3279 N   0  0  0  0  0  0  0  0  0  0  0  0
    2.0075   -0.2699   -6.3216 N   0  0  0  0  0  0  0  0  0  0  0  0
    5.8256    2.1524   -3.8269 C   0  0  0  0  0  0  0  0  0  0  0  0
    6.5962    1.0717   -4.2473 C   0  0  0  0  0  0  0  0  0  0  0  0
    6.0768   -0.2257   -4.2302 C   0  0  0  0  0  0  0  0  0  0  0  0
    4.7570   -0.3852   -3.7960 C   0  0  0  0  0  0  0  0  0  0  0  0
    3.9573    0.6874   -3.3691 C   0  0  0  0  0  0  0  0  0  0  0  0
    4.5115    1.9869   -3.3807 C   0  0  0  0  0  0  0  0  0  0  0  0
    6.2285    3.1593   -3.8339 H   0  0  0  0  0  0  0  0  0  0  0  0
    7.6144    1.2411   -4.5872 H   0  0  0  0  0  0  0  0  0  0  0  0
    4.3350   -1.3892   -3.7812 H   0  0  0  0  0  0  0  0  0  0  0  0
    0.9932    3.1321   -2.9817 H   0  0  0  0  0  0  0  0  0  0  0  0
    3.6984    3.5103   -2.7739 S   0  0  0  0  0  0  0  0  0  0  0  0
    2.4041    3.5611   -3.5809 O   0  0  0  0  0  0  0  0  0  0  0  0
    4.6136    4.6040   -3.1257 O   0  0  0  0  0  0  0  0  0  0  0  0
    3.4532    3.2729   -1.3369 O   0  0  0  0  0  0  0  0  0  0  0  0
    6.9129   -1.4141   -4.6391 C   0  0  0  0  0  0  0  0  0  0  0  0
    7.6049   -1.1549   -5.4459 H   0  0  0  0  0  0  0  0  0  0  0  0
    7.5171   -1.7763   -3.7982 H   0  0  0  0  0  0  0  0  0  0  0  0
    6.2923   -2.2489   -4.9777 H   0  0  0  0  0  0  0  0  0  0  0  0
  1  6  2  0  0  0  0
  1  7  1  0  0  0  0
  2  8  1  1  0  0  0
  2  1  1  0  0  0  0
  3  4  2  0  0  0  0
  3  2  1  0  0  0  0
  4  5  1  0  0  0  0
  5 10  1  0  0  0  0
  5  6  1  0  0  0  0
  6 11  1  0  0  0  0
  9  4  1  0  0  0  0
 11 12  2  0  0  0  0
 11 13  2  0  0  0  0
 14  3  1  0  0  0  0
 15 14  1  0  0  0  0
 16 21  2  0  0  0  0
 17 18  2  0  0  0  0
 17 16  1  0  0  0  0
 18 19  1  0  0  0  0
 19 24  1  0  0  0  0
 19 20  2  0  0  0  0
 20  2  1  0  0  0  0
 21 20  1  0  0  0  0
 21 26  1  0  0  0  0
 22 16  1  0  0  0  0
 23 17  1  0  0  0  0
 25  5  1  0  0  0  0
 26 29  1  0  0  0  0
 27 26  2  0  0  0  0
 28 26  2  0  0  0  0
 30 18  1  0  0  0  0
 30 32  1  0  0  0  0
 31 30  1  0  0  0  0
 33 30  1  0  0  0  0
M  RAD  3  14   2  15   3  29   2
M  END
