Coordinates from ORCA-job p-NO2-Ph-N2-H-OTs-B3LYPG-6-31G_dp-scan-d09-49-n400
 OpenBabel08281820503D

 33 34  0  0  1  0  0  0  0  0999 V2000
    2.0015    0.8168   -1.6874 C   0  0  0  0  0  0  0  0  0  0  0  0
    2.4832    0.3595   -3.0461 C   0  0  1  0  0  0  0  0  0  0  0  0
    1.4770    0.7762   -4.1334 C   0  0  0  0  0  0  0  0  0  0  0  0
    0.2804    1.5252   -3.8555 C   0  0  0  0  0  0  0  0  0  0  0  0
   -0.0389    1.8839   -2.5846 C   0  0  0  0  0  0  0  0  0  0  0  0
    0.8395    1.4619   -1.5066 C   0  0  0  0  0  0  0  0  0  0  0  0
    2.6196    0.5830   -0.8296 H   0  0  0  0  0  0  0  0  0  0  0  0
    2.4848   -0.7408   -2.9920 H   0  0  0  0  0  0  0  0  0  0  0  0
   -0.3520    1.8099   -4.6905 H   0  0  0  0  0  0  0  0  0  0  0  0
   -0.9340    2.4406   -2.3469 H   0  0  0  0  0  0  0  0  0  0  0  0
    0.4494    1.8217   -0.1295 N   0  0  0  0  0  0  0  0  0  0  0  0
   -0.5612    2.5135   -0.0043 O   0  0  0  0  0  0  0  0  0  0  0  0
    1.1390    1.4074    0.7980 O   0  0  0  0  0  0  0  0  0  0  0  0
    1.7374    0.4240   -5.3663 N   0  0  0  0  0  0  0  0  0  0  0  0
    1.9996    0.0943   -6.4303 N   0  0  0  0  0  0  0  0  0  0  0  0
    5.8666    2.1415   -3.8405 C   0  0  0  0  0  0  0  0  0  0  0  0
    6.6305    1.0379   -4.2092 C   0  0  0  0  0  0  0  0  0  0  0  0
    6.0836   -0.2458   -4.1729 C   0  0  0  0  0  0  0  0  0  0  0  0
    4.7487   -0.3730   -3.7690 C   0  0  0  0  0  0  0  0  0  0  0  0
    3.9460    0.7102   -3.3882 C   0  0  0  0  0  0  0  0  0  0  0  0
    4.5384    1.9939   -3.4302 C   0  0  0  0  0  0  0  0  0  0  0  0
    6.2918    3.1377   -3.8697 H   0  0  0  0  0  0  0  0  0  0  0  0
    7.6584    1.1833   -4.5285 H   0  0  0  0  0  0  0  0  0  0  0  0
    4.3068   -1.3670   -3.7531 H   0  0  0  0  0  0  0  0  0  0  0  0
    1.6069    3.3570   -3.3518 H   0  0  0  0  0  0  0  0  0  0  0  0
    3.7691    3.5433   -2.8992 S   0  0  0  0  0  0  0  0  0  0  0  0
    2.4722    3.6767   -3.8747 O   0  0  0  0  0  0  0  0  0  0  0  0
    4.6614    4.6280   -3.2810 O   0  0  0  0  0  0  0  0  0  0  0  0
    3.3059    3.4059   -1.5188 O   0  0  0  0  0  0  0  0  0  0  0  0
    6.9022   -1.4593   -4.5370 C   0  0  0  0  0  0  0  0  0  0  0  0
    7.6398   -1.2237   -5.3093 H   0  0  0  0  0  0  0  0  0  0  0  0
    7.4518   -1.8335   -3.6645 H   0  0  0  0  0  0  0  0  0  0  0  0
    6.2727   -2.2757   -4.9015 H   0  0  0  0  0  0  0  0  0  0  0  0
  1  6  2  0  0  0  0
  1  7  1  0  0  0  0
  2  8  1  1  0  0  0
  2  1  1  0  0  0  0
  3  4  2  0  0  0  0
  3  2  1  0  0  0  0
  4  5  1  0  0  0  0
  5 10  1  0  0  0  0
  5  6  1  0  0  0  0
  6 11  1  0  0  0  0
  9  4  1  0  0  0  0
 11 12  2  0  0  0  0
 11 13  2  0  0  0  0
 14  3  1  0  0  0  0
 15 14  1  0  0  0  0
 16 21  2  0  0  0  0
 17 18  2  0  0  0  0
 17 16  1  0  0  0  0
 18 19  1  0  0  0  0
 19 24  1  0  0  0  0
 19 20  2  0  0  0  0
 20  2  1  0  0  0  0
 21 20  1  0  0  0  0
 21 26  1  0  0  0  0
 22 16  1  0  0  0  0
 23 17  1  0  0  0  0
 26 29  2  0  0  0  0
 27 25  1  0  0  0  0
 27 26  1  0  0  0  0
 28 26  2  0  0  0  0
 30 18  1  0  0  0  0
 30 32  1  0  0  0  0
 31 30  1  0  0  0  0
 33 30  1  0  0  0  0
M  RAD  3   5   2  14   2  15   3
M  END
