Coordinates from ORCA-job p-NO2-Ph-N2-H-OTs-B3LYPG-6-31G_dp-scan-d09-49-n400
 OpenBabel08281820503D

 33 35  0  0  1  0  0  0  0  0999 V2000
    1.9927    0.5288   -1.8392 C   0  0  0  0  0  0  0  0  0  0  0  0
    2.4222    0.2600   -3.2627 C   0  0  1  0  0  0  0  0  0  0  0  0
    1.4876    0.9737   -4.2156 C   0  0  1  0  0  0  0  0  0  0  0  0
    1.0321    2.3518   -3.8919 C   0  0  1  0  0  0  0  0  0  0  0  0
    0.4831    2.4613   -2.4637 C   0  0  0  0  0  0  0  0  0  0  0  0
    1.1196    1.4839   -1.5218 C   0  0  0  0  0  0  0  0  0  0  0  0
    2.4218   -0.0781   -1.0500 H   0  0  0  0  0  0  0  0  0  0  0  0
    2.3321   -0.8212   -3.4241 H   0  0  0  0  0  0  0  0  0  0  0  0
    0.2745    2.6855   -4.6025 H   0  0  0  0  0  0  0  0  0  0  0  0
   -0.6027    2.3178   -2.4769 H   0  0  0  0  0  0  0  0  0  0  0  0
    0.7402    1.6353   -0.1053 N   0  0  0  0  0  0  0  0  0  0  0  0
   -0.0988    2.5019    0.1422 O   0  0  0  0  0  0  0  0  0  0  0  0
    1.2553    0.8939    0.7290 O   0  0  0  0  0  0  0  0  0  0  0  0
    1.3188    0.5050   -5.4165 N   0  0  0  0  0  0  0  0  0  0  0  0
    1.1372    0.0578   -6.4547 N   0  0  0  0  0  0  0  0  0  0  0  0
    5.7464    2.1257   -3.9824 C   0  0  0  0  0  0  0  0  0  0  0  0
    6.6083    1.0452   -4.1577 C   0  0  0  0  0  0  0  0  0  0  0  0
    6.1480   -0.2648   -4.0073 C   0  0  0  0  0  0  0  0  0  0  0  0
    4.7927   -0.4531   -3.7018 C   0  0  0  0  0  0  0  0  0  0  0  0
    3.9005    0.6060   -3.5159 C   0  0  0  0  0  0  0  0  0  0  0  0
    4.4053    1.9161   -3.6541 C   0  0  0  0  0  0  0  0  0  0  0  0
    6.1048    3.1412   -4.1047 H   0  0  0  0  0  0  0  0  0  0  0  0
    7.6463    1.2292   -4.4186 H   0  0  0  0  0  0  0  0  0  0  0  0
    4.4138   -1.4693   -3.6144 H   0  0  0  0  0  0  0  0  0  0  0  0
    0.6766    3.4811   -2.1291 H   0  0  0  0  0  0  0  0  0  0  0  0
    3.4957    3.4403   -3.2990 S   0  0  0  0  0  0  0  0  0  0  0  0
    2.0923    3.3554   -4.1417 O   0  0  0  0  0  0  0  0  0  0  0  0
    4.2021    4.5408   -3.9374 O   0  0  0  0  0  0  0  0  0  0  0  0
    3.2025    3.4825   -1.8677 O   0  0  0  0  0  0  0  0  0  0  0  0
    7.0738   -1.4464   -4.1567 C   0  0  0  0  0  0  0  0  0  0  0  0
    7.9399   -1.2002   -4.7765 H   0  0  0  0  0  0  0  0  0  0  0  0
    7.4505   -1.7696   -3.1790 H   0  0  0  0  0  0  0  0  0  0  0  0
    6.5631   -2.3029   -4.6066 H   0  0  0  0  0  0  0  0  0  0  0  0
  1  6  2  0  0  0  0
  1  7  1  0  0  0  0
  2  8  1  6  0  0  0
  2  1  1  0  0  0  0
  3 14  1  6  0  0  0
  3  4  1  0  0  0  0
  3  2  1  0  0  0  0
  4  9  1  6  0  0  0
  4  5  1  0  0  0  0
  5 25  1  0  0  0  0
  5  6  1  0  0  0  0
  6 11  1  0  0  0  0
 10  5  1  0  0  0  0
 11 12  2  0  0  0  0
 11 13  2  0  0  0  0
 15 14  1  0  0  0  0
 16 21  2  0  0  0  0
 17 18  2  0  0  0  0
 17 16  1  0  0  0  0
 18 19  1  0  0  0  0
 19 24  1  0  0  0  0
 19 20  2  0  0  0  0
 20  2  1  0  0  0  0
 21 20  1  0  0  0  0
 21 26  1  0  0  0  0
 22 16  1  0  0  0  0
 23 17  1  0  0  0  0
 26 29  2  0  0  0  0
 27  4  1  0  0  0  0
 27 26  1  0  0  0  0
 28 26  2  0  0  0  0
 30 18  1  0  0  0  0
 30 32  1  0  0  0  0
 31 30  1  0  0  0  0
 33 30  1  0  0  0  0
M  RAD  3   3   2  14   2  15   3
M  END
