Coordinates from ORCA-job p-NO2-Ph-N2-H-OTs-B3LYPG-6-31G_dp-scan-d09-49-n400
 OpenBabel08281820503D

 33 35  0  0  1  0  0  0  0  0999 V2000
    2.0614    0.4219   -1.9477 C   0  0  0  0  0  0  0  0  0  0  0  0
    2.3788    0.3750   -3.4307 C   0  0  1  0  0  0  0  0  0  0  0  0
    1.4236    1.2775   -4.1669 C   0  0  1  0  0  0  0  0  0  0  0  0
    1.0736    2.5597   -3.5021 C   0  0  1  0  0  0  0  0  0  0  0  0
    0.4257    2.3423   -2.1459 C   0  0  0  0  0  0  0  0  0  0  0  0
    1.1740    1.2655   -1.4124 C   0  0  0  0  0  0  0  0  0  0  0  0
    2.5730   -0.2788   -1.2967 H   0  0  0  0  0  0  0  0  0  0  0  0
    2.2186   -0.6633   -3.7495 H   0  0  0  0  0  0  0  0  0  0  0  0
    0.4871    3.2153   -4.1462 H   0  0  0  0  0  0  0  0  0  0  0  0
   -0.6408    2.1141   -2.2343 H   0  0  0  0  0  0  0  0  0  0  0  0
    0.9012    1.1639    0.0333 N   0  0  0  0  0  0  0  0  0  0  0  0
    0.0368    1.9208    0.4758 O   0  0  0  0  0  0  0  0  0  0  0  0
    1.5244    0.3394    0.6998 O   0  0  0  0  0  0  0  0  0  0  0  0
    1.1372    1.0631   -5.4154 N   0  0  0  0  0  0  0  0  0  0  0  0
    0.8501    0.8401   -6.4992 N   0  0  0  0  0  0  0  0  0  0  0  0
    5.7848    2.0979   -4.1955 C   0  0  0  0  0  0  0  0  0  0  0  0
    6.6384    1.0031   -4.1148 C   0  0  0  0  0  0  0  0  0  0  0  0
    6.1381   -0.2705   -3.8221 C   0  0  0  0  0  0  0  0  0  0  0  0
    4.7594   -0.4031   -3.6213 C   0  0  0  0  0  0  0  0  0  0  0  0
    3.8700    0.6751   -3.6964 C   0  0  0  0  0  0  0  0  0  0  0  0
    4.4097    1.9440   -3.9918 C   0  0  0  0  0  0  0  0  0  0  0  0
    6.1794    3.0858   -4.4047 H   0  0  0  0  0  0  0  0  0  0  0  0
    7.7027    1.1424   -4.2820 H   0  0  0  0  0  0  0  0  0  0  0  0
    4.3562   -1.3891   -3.3991 H   0  0  0  0  0  0  0  0  0  0  0  0
    0.5426    3.3058   -1.6533 H   0  0  0  0  0  0  0  0  0  0  0  0
    3.4565    3.4668   -4.1913 S   0  0  0  0  0  0  0  0  0  0  0  0
    2.7575    3.5188   -5.4710 O   0  0  0  0  0  0  0  0  0  0  0  0
    4.3023    4.5671   -3.7542 O   0  0  0  0  0  0  0  0  0  0  0  0
    2.2973    3.2909   -3.0714 O   0  0  0  0  0  0  0  0  0  0  0  0
    7.0570   -1.4614   -3.7035 C   0  0  0  0  0  0  0  0  0  0  0  0
    7.9194   -1.3666   -4.3690 H   0  0  0  0  0  0  0  0  0  0  0  0
    7.4427   -1.5546   -2.6812 H   0  0  0  0  0  0  0  0  0  0  0  0
    6.5396   -2.3942   -3.9439 H   0  0  0  0  0  0  0  0  0  0  0  0
  1  6  2  0  0  0  0
  1  7  1  0  0  0  0
  2  8  1  6  0  0  0
  2  1  1  0  0  0  0
  3 14  1  6  0  0  0
  3  4  1  0  0  0  0
  3  2  1  0  0  0  0
  4  9  1  6  0  0  0
  4 29  1  0  0  0  0
  4  5  1  0  0  0  0
  5 25  1  0  0  0  0
  5  6  1  0  0  0  0
  6 11  1  0  0  0  0
 10  5  1  0  0  0  0
 11 12  2  0  0  0  0
 11 13  2  0  0  0  0
 15 14  1  0  0  0  0
 16 17  2  0  0  0  0
 16 21  1  0  0  0  0
 17 18  1  0  0  0  0
 18 30  1  0  0  0  0
 18 19  2  0  0  0  0
 19 24  1  0  0  0  0
 20 19  1  0  0  0  0
 20  2  1  0  0  0  0
 21 20  2  0  0  0  0
 22 16  1  0  0  0  0
 23 17  1  0  0  0  0
 26 21  1  0  0  0  0
 26 28  2  0  0  0  0
 26 29  1  0  0  0  0
 27 26  2  0  0  0  0
 30 32  1  0  0  0  0
 31 30  1  0  0  0  0
 33 30  1  0  0  0  0
M  RAD  3   3   2  14   2  15   3
M  END
