Coordinates from ORCA-job p-NO2-Ph-N2-H-OTs-B3LYPG-6-31G_dp-scan-d09-49-n400
 OpenBabel08281820503D

 33 35  0  0  1  0  0  0  0  0999 V2000
    2.0083    0.5404   -1.8428 C   0  0  0  0  0  0  0  0  0  0  0  0
    2.4229    0.2715   -3.2702 C   0  0  1  0  0  0  0  0  0  0  0  0
    1.4792    0.9856   -4.2146 C   0  0  1  0  0  0  0  0  0  0  0  0
    1.0396    2.3724   -3.8930 C   0  0  1  0  0  0  0  0  0  0  0  0
    0.4665    2.4497   -2.4639 C   0  0  0  0  0  0  0  0  0  0  0  0
    1.1322    1.4907   -1.5208 C   0  0  0  0  0  0  0  0  0  0  0  0
    2.4536   -0.0582   -1.0564 H   0  0  0  0  0  0  0  0  0  0  0  0
    2.3296   -0.8093   -3.4320 H   0  0  0  0  0  0  0  0  0  0  0  0
    0.2804    2.7108   -4.5993 H   0  0  0  0  0  0  0  0  0  0  0  0
   -0.6031    2.2145   -2.5248 H   0  0  0  0  0  0  0  0  0  0  0  0
    0.7652    1.6441   -0.1013 N   0  0  0  0  0  0  0  0  0  0  0  0
   -0.0912    2.4928    0.1503 O   0  0  0  0  0  0  0  0  0  0  0  0
    1.3061    0.9207    0.7322 O   0  0  0  0  0  0  0  0  0  0  0  0
    1.2962    0.5142   -5.4121 N   0  0  0  0  0  0  0  0  0  0  0  0
    1.1012    0.0653   -6.4473 N   0  0  0  0  0  0  0  0  0  0  0  0
    5.7620    2.1238   -3.9652 C   0  0  0  0  0  0  0  0  0  0  0  0
    6.6188    1.0394   -4.1402 C   0  0  0  0  0  0  0  0  0  0  0  0
    6.1486   -0.2689   -4.0041 C   0  0  0  0  0  0  0  0  0  0  0  0
    4.7899   -0.4505   -3.7110 C   0  0  0  0  0  0  0  0  0  0  0  0
    3.9025    0.6128   -3.5250 C   0  0  0  0  0  0  0  0  0  0  0  0
    4.4167    1.9205   -3.6502 C   0  0  0  0  0  0  0  0  0  0  0  0
    6.1273    3.1379   -4.0790 H   0  0  0  0  0  0  0  0  0  0  0  0
    7.6602    1.2186   -4.3906 H   0  0  0  0  0  0  0  0  0  0  0  0
    4.4044   -1.4650   -3.6325 H   0  0  0  0  0  0  0  0  0  0  0  0
    0.5321    3.4639   -2.0623 H   0  0  0  0  0  0  0  0  0  0  0  0
    3.5049    3.4472   -3.3136 S   0  0  0  0  0  0  0  0  0  0  0  0
    2.1212    3.3453   -4.1852 O   0  0  0  0  0  0  0  0  0  0  0  0
    4.2229    4.5430   -3.9470 O   0  0  0  0  0  0  0  0  0  0  0  0
    3.1804    3.4997   -1.8897 O   0  0  0  0  0  0  0  0  0  0  0  0
    7.0681   -1.4553   -4.1549 C   0  0  0  0  0  0  0  0  0  0  0  0
    7.9372   -1.2122   -4.7717 H   0  0  0  0  0  0  0  0  0  0  0  0
    7.4407   -1.7836   -3.1773 H   0  0  0  0  0  0  0  0  0  0  0  0
    6.5536   -2.3074   -4.6087 H   0  0  0  0  0  0  0  0  0  0  0  0
  1  6  2  0  0  0  0
  1  7  1  0  0  0  0
  2  8  1  6  0  0  0
  2  1  1  0  0  0  0
  3 14  1  6  0  0  0
  3  4  1  0  0  0  0
  3  2  1  0  0  0  0
  4  9  1  6  0  0  0
  4  5  1  0  0  0  0
  5 25  1  0  0  0  0
  5  6  1  0  0  0  0
  6 11  1  0  0  0  0
 10  5  1  0  0  0  0
 11 12  2  0  0  0  0
 11 13  2  0  0  0  0
 15 14  1  0  0  0  0
 16 21  2  0  0  0  0
 17 18  2  0  0  0  0
 17 16  1  0  0  0  0
 18 19  1  0  0  0  0
 19 24  1  0  0  0  0
 19 20  2  0  0  0  0
 20  2  1  0  0  0  0
 21 20  1  0  0  0  0
 21 26  1  0  0  0  0
 22 16  1  0  0  0  0
 23 17  1  0  0  0  0
 26 29  2  0  0  0  0
 27  4  1  0  0  0  0
 27 26  1  0  0  0  0
 28 26  2  0  0  0  0
 30 18  1  0  0  0  0
 30 32  1  0  0  0  0
 31 30  1  0  0  0  0
 33 30  1  0  0  0  0
M  RAD  3   3   2  14   2  15   3
M  END
