Coordinates from ORCA-job p-NO2-Ph-N2-H-OTs-B3LYPG-6-31G_dp-scan-d09-49-n400
 OpenBabel08281820503D

 33 34  0  0  1  0  0  0  0  0999 V2000
    1.9836    0.8060   -1.6728 C   0  0  0  0  0  0  0  0  0  0  0  0
    2.5154    0.3201   -2.9998 C   0  0  1  0  0  0  0  0  0  0  0  0
    1.5118    0.7027   -4.1032 C   0  0  0  0  0  0  0  0  0  0  0  0
    0.4348    1.5461   -3.9639 C   0  0  0  0  0  0  0  0  0  0  0  0
    0.2338    2.2428   -2.7166 C   0  0  0  0  0  0  0  0  0  0  0  0
    0.9131    1.5914   -1.5589 C   0  0  0  0  0  0  0  0  0  0  0  0
    2.4920    0.4618   -0.7802 H   0  0  0  0  0  0  0  0  0  0  0  0
    2.5105   -0.7772   -2.9351 H   0  0  0  0  0  0  0  0  0  0  0  0
   -0.1805    1.7891   -4.8259 H   0  0  0  0  0  0  0  0  0  0  0  0
   -0.7735    2.6049   -2.5259 H   0  0  0  0  0  0  0  0  0  0  0  0
    0.4504    1.9773   -0.2221 N   0  0  0  0  0  0  0  0  0  0  0  0
   -0.4607    2.8057   -0.1754 O   0  0  0  0  0  0  0  0  0  0  0  0
    0.9727    1.4426    0.7510 O   0  0  0  0  0  0  0  0  0  0  0  0
    1.7605    0.2101   -5.3306 N   0  0  0  0  0  0  0  0  0  0  0  0
    2.0273   -0.2465   -6.3245 N   0  0  0  0  0  0  0  0  0  0  0  0
    5.8295    2.1500   -3.8339 C   0  0  0  0  0  0  0  0  0  0  0  0
    6.5983    1.0670   -4.2517 C   0  0  0  0  0  0  0  0  0  0  0  0
    6.0775   -0.2301   -4.2302 C   0  0  0  0  0  0  0  0  0  0  0  0
    4.7580   -0.3870   -3.7945 C   0  0  0  0  0  0  0  0  0  0  0  0
    3.9608    0.6884   -3.3699 C   0  0  0  0  0  0  0  0  0  0  0  0
    4.5158    1.9871   -3.3856 C   0  0  0  0  0  0  0  0  0  0  0  0
    6.2331    3.1566   -3.8438 H   0  0  0  0  0  0  0  0  0  0  0  0
    7.6165    1.2339   -4.5930 H   0  0  0  0  0  0  0  0  0  0  0  0
    4.3348   -1.3906   -3.7760 H   0  0  0  0  0  0  0  0  0  0  0  0
    0.9493    3.1453   -2.9633 H   0  0  0  0  0  0  0  0  0  0  0  0
    3.7013    3.5099   -2.7793 S   0  0  0  0  0  0  0  0  0  0  0  0
    2.4050    3.5532   -3.5776 O   0  0  0  0  0  0  0  0  0  0  0  0
    4.6159    4.6040   -3.1336 O   0  0  0  0  0  0  0  0  0  0  0  0
    3.4666    3.2707   -1.3400 O   0  0  0  0  0  0  0  0  0  0  0  0
    6.9124   -1.4203   -4.6363 C   0  0  0  0  0  0  0  0  0  0  0  0
    7.5983   -1.1662   -5.4499 H   0  0  0  0  0  0  0  0  0  0  0  0
    7.5233   -1.7755   -3.7973 H   0  0  0  0  0  0  0  0  0  0  0  0
    6.2905   -2.2585   -4.9643 H   0  0  0  0  0  0  0  0  0  0  0  0
  1  6  2  0  0  0  0
  1  7  1  0  0  0  0
  2  8  1  1  0  0  0
  2  1  1  0  0  0  0
  3  4  2  0  0  0  0
  3  2  1  0  0  0  0
  4  5  1  0  0  0  0
  5 10  1  0  0  0  0
  5  6  1  0  0  0  0
  6 11  1  0  0  0  0
  9  4  1  0  0  0  0
 11 12  2  0  0  0  0
 11 13  2  0  0  0  0
 14  3  1  0  0  0  0
 15 14  1  0  0  0  0
 16 21  2  0  0  0  0
 17 18  2  0  0  0  0
 17 16  1  0  0  0  0
 18 19  1  0  0  0  0
 19 24  1  0  0  0  0
 19 20  2  0  0  0  0
 20  2  1  0  0  0  0
 21 20  1  0  0  0  0
 21 26  1  0  0  0  0
 22 16  1  0  0  0  0
 23 17  1  0  0  0  0
 25  5  1  0  0  0  0
 26 29  1  0  0  0  0
 27 26  2  0  0  0  0
 28 26  2  0  0  0  0
 30 18  1  0  0  0  0
 30 32  1  0  0  0  0
 31 30  1  0  0  0  0
 33 30  1  0  0  0  0
M  RAD  3  14   2  15   3  29   2
M  END
