Coordinates from ORCA-job p-NO2-Ph-N2-H-OTs-B3LYPG-6-31G_dp-scan-d09-49-n400
 OpenBabel08281820503D

 33 35  0  0  1  0  0  0  0  0999 V2000
    2.0374    0.4371   -1.9032 C   0  0  0  0  0  0  0  0  0  0  0  0
    2.3936    0.3601   -3.3788 C   0  0  1  0  0  0  0  0  0  0  0  0
    1.4493    1.2389   -4.1546 C   0  0  1  0  0  0  0  0  0  0  0  0
    1.0910    2.5224   -3.5064 C   0  0  1  0  0  0  0  0  0  0  0  0
    0.4026    2.3488   -2.1736 C   0  0  0  0  0  0  0  0  0  0  0  0
    1.1268    1.2803   -1.4035 C   0  0  0  0  0  0  0  0  0  0  0  0
    2.5319   -0.2527   -1.2276 H   0  0  0  0  0  0  0  0  0  0  0  0
    2.2474   -0.6875   -3.6729 H   0  0  0  0  0  0  0  0  0  0  0  0
    0.5620    3.2025   -4.1722 H   0  0  0  0  0  0  0  0  0  0  0  0
   -0.6703    2.1587   -2.2601 H   0  0  0  0  0  0  0  0  0  0  0  0
    0.8113    1.1941    0.0337 N   0  0  0  0  0  0  0  0  0  0  0  0
   -0.0662    1.9557    0.4407 O   0  0  0  0  0  0  0  0  0  0  0  0
    1.4117    0.3749    0.7274 O   0  0  0  0  0  0  0  0  0  0  0  0
    1.2188    1.0249   -5.4147 N   0  0  0  0  0  0  0  0  0  0  0  0
    0.9776    0.7988   -6.5092 N   0  0  0  0  0  0  0  0  0  0  0  0
    5.7754    2.0903   -4.2473 C   0  0  0  0  0  0  0  0  0  0  0  0
    6.6334    0.9976   -4.1891 C   0  0  0  0  0  0  0  0  0  0  0  0
    6.1475   -0.2719   -3.8575 C   0  0  0  0  0  0  0  0  0  0  0  0
    4.7775   -0.4042   -3.6029 C   0  0  0  0  0  0  0  0  0  0  0  0
    3.8821    0.6703   -3.6577 C   0  0  0  0  0  0  0  0  0  0  0  0
    4.4097    1.9378   -3.9883 C   0  0  0  0  0  0  0  0  0  0  0  0
    6.1619    3.0770   -4.4770 H   0  0  0  0  0  0  0  0  0  0  0  0
    7.6897    1.1359   -4.4012 H   0  0  0  0  0  0  0  0  0  0  0  0
    4.3854   -1.3890   -3.3571 H   0  0  0  0  0  0  0  0  0  0  0  0
    0.5815    3.3426   -1.7678 H   0  0  0  0  0  0  0  0  0  0  0  0
    3.4552    3.4709   -4.1002 S   0  0  0  0  0  0  0  0  0  0  0  0
    2.6874    3.6082   -5.3318 O   0  0  0  0  0  0  0  0  0  0  0  0
    4.3173    4.5437   -3.6281 O   0  0  0  0  0  0  0  0  0  0  0  0
    2.3185    3.2124   -2.9894 O   0  0  0  0  0  0  0  0  0  0  0  0
    7.0729   -1.4593   -3.7585 C   0  0  0  0  0  0  0  0  0  0  0  0
    7.8885   -1.3898   -4.4840 H   0  0  0  0  0  0  0  0  0  0  0  0
    7.5279   -1.5157   -2.7621 H   0  0  0  0  0  0  0  0  0  0  0  0
    6.5413   -2.3993   -3.9291 H   0  0  0  0  0  0  0  0  0  0  0  0
  1  6  2  0  0  0  0
  1  7  1  0  0  0  0
  2  8  1  6  0  0  0
  2  1  1  0  0  0  0
  3 14  1  6  0  0  0
  3  4  1  0  0  0  0
  3  2  1  0  0  0  0
  4  9  1  6  0  0  0
  4 29  1  0  0  0  0
  4  5  1  0  0  0  0
  5 25  1  0  0  0  0
  5  6  1  0  0  0  0
  6 11  1  0  0  0  0
 10  5  1  0  0  0  0
 11 12  2  0  0  0  0
 11 13  2  0  0  0  0
 15 14  1  0  0  0  0
 16 17  2  0  0  0  0
 16 21  1  0  0  0  0
 17 18  1  0  0  0  0
 18 30  1  0  0  0  0
 18 19  2  0  0  0  0
 19 24  1  0  0  0  0
 20 19  1  0  0  0  0
 20  2  1  0  0  0  0
 21 20  2  0  0  0  0
 22 16  1  0  0  0  0
 23 17  1  0  0  0  0
 26 21  1  0  0  0  0
 26 28  2  0  0  0  0
 26 29  1  0  0  0  0
 27 26  2  0  0  0  0
 30 32  1  0  0  0  0
 31 30  1  0  0  0  0
 33 30  1  0  0  0  0
M  RAD  3   3   2  14   2  15   3
M  END
