Coordinates from ORCA-job p-NO2-Ph-N2-H-OTs-B3LYPG-6-31G_dp-scan-d09-49-n400
 OpenBabel08281820503D

 33 35  0  0  1  0  0  0  0  0999 V2000
    1.9687    0.5226   -1.8256 C   0  0  0  0  0  0  0  0  0  0  0  0
    2.4228    0.2451   -3.2408 C   0  0  1  0  0  0  0  0  0  0  0  0
    1.5088    0.9562   -4.2149 C   0  0  1  0  0  0  0  0  0  0  0  0
    1.0191    2.3161   -3.8914 C   0  0  1  0  0  0  0  0  0  0  0  0
    0.4915    2.4693   -2.4689 C   0  0  0  0  0  0  0  0  0  0  0  0
    1.0937    1.4810   -1.5206 C   0  0  0  0  0  0  0  0  0  0  0  0
    2.3802   -0.0865   -1.0288 H   0  0  0  0  0  0  0  0  0  0  0  0
    2.3358   -0.8373   -3.3957 H   0  0  0  0  0  0  0  0  0  0  0  0
    0.2769    2.6476   -4.6187 H   0  0  0  0  0  0  0  0  0  0  0  0
   -0.6001    2.4519   -2.4233 H   0  0  0  0  0  0  0  0  0  0  0  0
    0.6984    1.6371   -0.1085 N   0  0  0  0  0  0  0  0  0  0  0  0
   -0.1221    2.5231    0.1302 O   0  0  0  0  0  0  0  0  0  0  0  0
    1.1846    0.8807    0.7299 O   0  0  0  0  0  0  0  0  0  0  0  0
    1.3754    0.4921   -5.4227 N   0  0  0  0  0  0  0  0  0  0  0  0
    1.2265    0.0472   -6.4667 N   0  0  0  0  0  0  0  0  0  0  0  0
    5.7211    2.1270   -4.0103 C   0  0  0  0  0  0  0  0  0  0  0  0
    6.5888    1.0519   -4.1923 C   0  0  0  0  0  0  0  0  0  0  0  0
    6.1443   -0.2605   -4.0183 C   0  0  0  0  0  0  0  0  0  0  0  0
    4.7964   -0.4581   -3.6860 C   0  0  0  0  0  0  0  0  0  0  0  0
    3.8992    0.5949   -3.4940 C   0  0  0  0  0  0  0  0  0  0  0  0
    4.3888    1.9084   -3.6537 C   0  0  0  0  0  0  0  0  0  0  0  0
    6.0688    3.1444   -4.1462 H   0  0  0  0  0  0  0  0  0  0  0  0
    7.6197    1.2425   -4.4756 H   0  0  0  0  0  0  0  0  0  0  0  0
    4.4275   -1.4766   -3.5839 H   0  0  0  0  0  0  0  0  0  0  0  0
    0.8601    3.4758   -2.2704 H   0  0  0  0  0  0  0  0  0  0  0  0
    3.4866    3.4276   -3.2585 S   0  0  0  0  0  0  0  0  0  0  0  0
    2.0453    3.3760   -4.0411 O   0  0  0  0  0  0  0  0  0  0  0  0
    4.1726    4.5378   -3.9033 O   0  0  0  0  0  0  0  0  0  0  0  0
    3.2512    3.4481   -1.8157 O   0  0  0  0  0  0  0  0  0  0  0  0
    7.0776   -1.4354   -4.1730 C   0  0  0  0  0  0  0  0  0  0  0  0
    7.9397   -1.1825   -4.7956 H   0  0  0  0  0  0  0  0  0  0  0  0
    7.4596   -1.7580   -3.1972 H   0  0  0  0  0  0  0  0  0  0  0  0
    6.5709   -2.2946   -4.6224 H   0  0  0  0  0  0  0  0  0  0  0  0
  1  6  2  0  0  0  0
  1  7  1  0  0  0  0
  2  8  1  6  0  0  0
  2  1  1  0  0  0  0
  3 14  1  6  0  0  0
  3  4  1  0  0  0  0
  3  2  1  0  0  0  0
  4  9  1  6  0  0  0
  4  5  1  0  0  0  0
  5 10  1  0  0  0  0
  5 25  1  0  0  0  0
  5  6  1  0  0  0  0
  6 11  1  0  0  0  0
 11 12  2  0  0  0  0
 11 13  2  0  0  0  0
 15 14  1  0  0  0  0
 16 21  2  0  0  0  0
 17 18  2  0  0  0  0
 17 16  1  0  0  0  0
 18 19  1  0  0  0  0
 19 24  1  0  0  0  0
 19 20  2  0  0  0  0
 20  2  1  0  0  0  0
 21 20  1  0  0  0  0
 21 26  1  0  0  0  0
 22 16  1  0  0  0  0
 23 17  1  0  0  0  0
 26 29  2  0  0  0  0
 27  4  1  0  0  0  0
 27 26  1  0  0  0  0
 28 26  2  0  0  0  0
 30 18  1  0  0  0  0
 30 32  1  0  0  0  0
 31 30  1  0  0  0  0
 33 30  1  0  0  0  0
M  RAD  3   3   2  14   2  15   3
M  END
