Coordinates from ORCA-job p-NO2-Ph-N2-H-OTs-B3LYPG-6-31G_dp-scan-d09-49-n400
 OpenBabel08281820503D

 33 35  0  0  1  0  0  0  0  0999 V2000
    2.0778    0.6402   -1.8355 C   0  0  0  0  0  0  0  0  0  0  0  0
    2.4327    0.3650   -3.2763 C   0  0  1  0  0  0  0  0  0  0  0  0
    1.4618    1.0799   -4.1990 C   0  0  1  0  0  0  0  0  0  0  0  0
    1.0451    2.4784   -3.8796 C   0  0  1  0  0  0  0  0  0  0  0  0
    0.3154    2.3540   -2.4318 C   0  0  0  0  0  0  0  0  0  0  0  0
    1.1339    1.5145   -1.4898 C   0  0  0  0  0  0  0  0  0  0  0  0
    2.6280    0.1137   -1.0644 H   0  0  0  0  0  0  0  0  0  0  0  0
    2.3150   -0.7155   -3.4291 H   0  0  0  0  0  0  0  0  0  0  0  0
    0.3076    2.8593   -4.5835 H   0  0  0  0  0  0  0  0  0  0  0  0
   -0.5319    1.7337   -2.7648 H   0  0  0  0  0  0  0  0  0  0  0  0
    0.8281    1.6607   -0.0525 N   0  0  0  0  0  0  0  0  0  0  0  0
   -0.1445    2.3609    0.2385 O   0  0  0  0  0  0  0  0  0  0  0  0
    1.5266    1.0639    0.7620 O   0  0  0  0  0  0  0  0  0  0  0  0
    1.2718    0.6157   -5.3980 N   0  0  0  0  0  0  0  0  0  0  0  0
    1.0679    0.1714   -6.4340 N   0  0  0  0  0  0  0  0  0  0  0  0
    5.8393    2.1095   -3.9490 C   0  0  0  0  0  0  0  0  0  0  0  0
    6.6615    0.9965   -4.1106 C   0  0  0  0  0  0  0  0  0  0  0  0
    6.1421   -0.2951   -3.9946 C   0  0  0  0  0  0  0  0  0  0  0  0
    4.7728   -0.4301   -3.7271 C   0  0  0  0  0  0  0  0  0  0  0  0
    3.9198    0.6635   -3.5523 C   0  0  0  0  0  0  0  0  0  0  0  0
    4.4820    1.9517   -3.6632 C   0  0  0  0  0  0  0  0  0  0  0  0
    6.2396    3.1112   -4.0546 H   0  0  0  0  0  0  0  0  0  0  0  0
    7.7139    1.1397   -4.3377 H   0  0  0  0  0  0  0  0  0  0  0  0
    4.3516   -1.4310   -3.6575 H   0  0  0  0  0  0  0  0  0  0  0  0
   -0.2313    3.1197   -1.7974 H   0  0  0  0  0  0  0  0  0  0  0  0
    3.5820    3.4977   -3.4025 S   0  0  0  0  0  0  0  0  0  0  0  0
    2.2687    3.3427   -4.3596 O   0  0  0  0  0  0  0  0  0  0  0  0
    4.3585    4.5663   -4.0154 O   0  0  0  0  0  0  0  0  0  0  0  0
    3.1572    3.5865   -2.0073 O   0  0  0  0  0  0  0  0  0  0  0  0
    7.0221   -1.5122   -4.1374 C   0  0  0  0  0  0  0  0  0  0  0  0
    7.9003   -1.3005   -4.7531 H   0  0  0  0  0  0  0  0  0  0  0  0
    7.3819   -1.8485   -3.1577 H   0  0  0  0  0  0  0  0  0  0  0  0
    6.4811   -2.3487   -4.5893 H   0  0  0  0  0  0  0  0  0  0  0  0
  1  6  2  0  0  0  0
  1  7  1  0  0  0  0
  2  8  1  6  0  0  0
  2  1  1  0  0  0  0
  3 14  1  6  0  0  0
  3  4  1  0  0  0  0
  3  2  1  0  0  0  0
  4  9  1  6  0  0  0
  4  5  1  0  0  0  0
  5 25  1  0  0  0  0
  5  6  1  0  0  0  0
  6 11  1  0  0  0  0
 10  5  1  0  0  0  0
 11 12  2  0  0  0  0
 11 13  2  0  0  0  0
 15 14  1  0  0  0  0
 16 21  2  0  0  0  0
 17 18  2  0  0  0  0
 17 16  1  0  0  0  0
 18 19  1  0  0  0  0
 19 24  1  0  0  0  0
 19 20  2  0  0  0  0
 20  2  1  0  0  0  0
 21 20  1  0  0  0  0
 21 26  1  0  0  0  0
 22 16  1  0  0  0  0
 23 17  1  0  0  0  0
 26 29  2  0  0  0  0
 27  4  1  0  0  0  0
 27 26  1  0  0  0  0
 28 26  2  0  0  0  0
 30 18  1  0  0  0  0
 30 32  1  0  0  0  0
 31 30  1  0  0  0  0
 33 30  1  0  0  0  0
M  RAD  3   3   2  14   2  15   3
M  END
