Coordinates from ORCA-job p-NO2-Ph-N2-H-OTs-B3LYPG-6-31G_dp-scan-d09-49-n400
 OpenBabel08281820503D

 33 35  0  0  1  0  0  0  0  0999 V2000
    2.0338    0.4400   -1.8959 C   0  0  0  0  0  0  0  0  0  0  0  0
    2.3961    0.3578   -3.3702 C   0  0  1  0  0  0  0  0  0  0  0  0
    1.4534    1.2324   -4.1524 C   0  0  1  0  0  0  0  0  0  0  0  0
    1.0939    2.5163   -3.5070 C   0  0  1  0  0  0  0  0  0  0  0  0
    0.3990    2.3499   -2.1782 C   0  0  0  0  0  0  0  0  0  0  0  0
    1.1197    1.2833   -1.4019 C   0  0  0  0  0  0  0  0  0  0  0  0
    2.5255   -0.2479   -1.2163 H   0  0  0  0  0  0  0  0  0  0  0  0
    2.2523   -0.6912   -3.6599 H   0  0  0  0  0  0  0  0  0  0  0  0
    0.5739    3.1997   -4.1760 H   0  0  0  0  0  0  0  0  0  0  0  0
   -0.6745    2.1644   -2.2655 H   0  0  0  0  0  0  0  0  0  0  0  0
    0.7976    1.1997    0.0338 N   0  0  0  0  0  0  0  0  0  0  0  0
   -0.0827    1.9612    0.4350 O   0  0  0  0  0  0  0  0  0  0  0  0
    1.3939    0.3810    0.7317 O   0  0  0  0  0  0  0  0  0  0  0  0
    1.2311    1.0178   -5.4138 N   0  0  0  0  0  0  0  0  0  0  0  0
    0.9972    0.7912   -6.5099 N   0  0  0  0  0  0  0  0  0  0  0  0
    5.7736    2.0891   -4.2561 C   0  0  0  0  0  0  0  0  0  0  0  0
    6.6323    0.9967   -4.2015 C   0  0  0  0  0  0  0  0  0  0  0  0
    6.1488   -0.2720   -3.8635 C   0  0  0  0  0  0  0  0  0  0  0  0
    4.7805   -0.4042   -3.6001 C   0  0  0  0  0  0  0  0  0  0  0  0
    3.8841    0.6698   -3.6516 C   0  0  0  0  0  0  0  0  0  0  0  0
    4.4096    1.9370   -3.9881 C   0  0  0  0  0  0  0  0  0  0  0  0
    6.1588    3.0755   -4.4893 H   0  0  0  0  0  0  0  0  0  0  0  0
    7.6871    1.1348   -4.4209 H   0  0  0  0  0  0  0  0  0  0  0  0
    4.3903   -1.3887   -3.3502 H   0  0  0  0  0  0  0  0  0  0  0  0
    0.5857    3.3479   -1.7858 H   0  0  0  0  0  0  0  0  0  0  0  0
    3.4557    3.4718   -4.0857 S   0  0  0  0  0  0  0  0  0  0  0  0
    2.6790    3.6243   -5.3097 O   0  0  0  0  0  0  0  0  0  0  0  0
    4.3203    4.5392   -3.6061 O   0  0  0  0  0  0  0  0  0  0  0  0
    2.3219    3.1997   -2.9775 O   0  0  0  0  0  0  0  0  0  0  0  0
    7.0752   -1.4589   -3.7673 C   0  0  0  0  0  0  0  0  0  0  0  0
    7.8852   -1.3919   -4.4993 H   0  0  0  0  0  0  0  0  0  0  0  0
    7.5377   -1.5117   -2.7743 H   0  0  0  0  0  0  0  0  0  0  0  0
    6.5424   -2.3995   -3.9306 H   0  0  0  0  0  0  0  0  0  0  0  0
  1  6  2  0  0  0  0
  1  7  1  0  0  0  0
  2  8  1  6  0  0  0
  2  1  1  0  0  0  0
  3 14  1  6  0  0  0
  3  4  1  0  0  0  0
  3  2  1  0  0  0  0
  4  9  1  6  0  0  0
  4 29  1  0  0  0  0
  4  5  1  0  0  0  0
  5 25  1  0  0  0  0
  5  6  1  0  0  0  0
  6 11  1  0  0  0  0
 10  5  1  0  0  0  0
 11 12  2  0  0  0  0
 11 13  2  0  0  0  0
 15 14  1  0  0  0  0
 16 17  2  0  0  0  0
 16 21  1  0  0  0  0
 17 18  1  0  0  0  0
 18 30  1  0  0  0  0
 18 19  2  0  0  0  0
 19 24  1  0  0  0  0
 20 19  1  0  0  0  0
 20  2  1  0  0  0  0
 21 20  2  0  0  0  0
 22 16  1  0  0  0  0
 23 17  1  0  0  0  0
 26 21  1  0  0  0  0
 26 28  2  0  0  0  0
 26 29  1  0  0  0  0
 27 26  2  0  0  0  0
 30 32  1  0  0  0  0
 31 30  1  0  0  0  0
 33 30  1  0  0  0  0
M  RAD  3   3   2  14   2  15   3
M  END
