Coordinates from ORCA-job p-NO2-Ph-N2-H-OTs-B3LYPG-6-31G_dp-scan-d09-49-n400
 OpenBabel08281820503D

 33 34  0  0  1  0  0  0  0  0999 V2000
    1.9898    0.8261   -1.6718 C   0  0  0  0  0  0  0  0  0  0  0  0
    2.5221    0.3359   -2.9968 C   0  0  1  0  0  0  0  0  0  0  0  0
    1.5285    0.7313   -4.1017 C   0  0  0  0  0  0  0  0  0  0  0  0
    0.4539    1.5700   -3.9697 C   0  0  0  0  0  0  0  0  0  0  0  0
    0.2053    2.2399   -2.7039 C   0  0  0  0  0  0  0  0  0  0  0  0
    0.9029    1.5877   -1.5543 C   0  0  0  0  0  0  0  0  0  0  0  0
    2.5075    0.4940   -0.7800 H   0  0  0  0  0  0  0  0  0  0  0  0
    2.5027   -0.7616   -2.9330 H   0  0  0  0  0  0  0  0  0  0  0  0
   -0.1482    1.8239   -4.8378 H   0  0  0  0  0  0  0  0  0  0  0  0
   -0.8339    2.5081   -2.5199 H   0  0  0  0  0  0  0  0  0  0  0  0
    0.4379    1.9607   -0.2152 N   0  0  0  0  0  0  0  0  0  0  0  0
   -0.4881    2.7729   -0.1649 O   0  0  0  0  0  0  0  0  0  0  0  0
    0.9741    1.4364    0.7561 O   0  0  0  0  0  0  0  0  0  0  0  0
    1.7973    0.2600   -5.3379 N   0  0  0  0  0  0  0  0  0  0  0  0
    2.0809   -0.1786   -6.3334 N   0  0  0  0  0  0  0  0  0  0  0  0
    5.8369    2.1429   -3.8554 C   0  0  0  0  0  0  0  0  0  0  0  0
    6.6019    1.0542   -4.2651 C   0  0  0  0  0  0  0  0  0  0  0  0
    6.0793   -0.2425   -4.2285 C   0  0  0  0  0  0  0  0  0  0  0  0
    4.7611   -0.3938   -3.7872 C   0  0  0  0  0  0  0  0  0  0  0  0
    3.9692    0.6887   -3.3700 C   0  0  0  0  0  0  0  0  0  0  0  0
    4.5249    1.9860   -3.3999 C   0  0  0  0  0  0  0  0  0  0  0  0
    6.2408    3.1493   -3.8760 H   0  0  0  0  0  0  0  0  0  0  0  0
    7.6192    1.2154   -4.6119 H   0  0  0  0  0  0  0  0  0  0  0  0
    4.3359   -1.3963   -3.7573 H   0  0  0  0  0  0  0  0  0  0  0  0
    0.8267    3.1858   -2.9059 H   0  0  0  0  0  0  0  0  0  0  0  0
    3.7070    3.5076   -2.7967 S   0  0  0  0  0  0  0  0  0  0  0  0
    2.4013    3.5286   -3.5677 O   0  0  0  0  0  0  0  0  0  0  0  0
    4.6149    4.6036   -3.1669 O   0  0  0  0  0  0  0  0  0  0  0  0
    3.5049    3.2696   -1.3504 O   0  0  0  0  0  0  0  0  0  0  0  0
    6.9118   -1.4372   -4.6261 C   0  0  0  0  0  0  0  0  0  0  0  0
    7.5750   -1.1995   -5.4635 H   0  0  0  0  0  0  0  0  0  0  0  0
    7.5471   -1.7669   -3.7948 H   0  0  0  0  0  0  0  0  0  0  0  0
    6.2876   -2.2873   -4.9168 H   0  0  0  0  0  0  0  0  0  0  0  0
  1  6  2  0  0  0  0
  1  7  1  0  0  0  0
  2  8  1  1  0  0  0
  2  1  1  0  0  0  0
  3  4  2  0  0  0  0
  3  2  1  0  0  0  0
  4  5  1  0  0  0  0
  5 10  1  0  0  0  0
  5  6  1  0  0  0  0
  6 11  1  0  0  0  0
  9  4  1  0  0  0  0
 11 12  2  0  0  0  0
 11 13  2  0  0  0  0
 14  3  1  0  0  0  0
 15 14  1  0  0  0  0
 16 21  2  0  0  0  0
 17 18  2  0  0  0  0
 17 16  1  0  0  0  0
 18 19  1  0  0  0  0
 19 24  1  0  0  0  0
 19 20  2  0  0  0  0
 20  2  1  0  0  0  0
 21 20  1  0  0  0  0
 21 26  1  0  0  0  0
 22 16  1  0  0  0  0
 23 17  1  0  0  0  0
 25  5  1  0  0  0  0
 26 29  1  0  0  0  0
 27 26  2  0  0  0  0
 28 26  2  0  0  0  0
 30 18  1  0  0  0  0
 30 32  1  0  0  0  0
 31 30  1  0  0  0  0
 33 30  1  0  0  0  0
M  RAD  3  14   2  15   3  29   2
M  END
