Coordinates from ORCA-job p-NO2-Ph-N2-H-OTs-B3LYPG-6-31G_dp-scan-d09-49-n400
 OpenBabel08281820503D

 33 35  0  0  1  0  0  0  0  0999 V2000
    2.0235    0.5547   -1.8453 C   0  0  0  0  0  0  0  0  0  0  0  0
    2.4235    0.2850   -3.2763 C   0  0  1  0  0  0  0  0  0  0  0  0
    1.4718    0.9995   -4.2134 C   0  0  1  0  0  0  0  0  0  0  0  0
    1.0447    2.3931   -3.8930 C   0  0  1  0  0  0  0  0  0  0  0  0
    0.4455    2.4358   -2.4629 C   0  0  0  0  0  0  0  0  0  0  0  0
    1.1416    1.4978   -1.5186 C   0  0  0  0  0  0  0  0  0  0  0  0
    2.4870   -0.0337   -1.0618 H   0  0  0  0  0  0  0  0  0  0  0  0
    2.3264   -0.7956   -3.4378 H   0  0  0  0  0  0  0  0  0  0  0  0
    0.2861    2.7379   -4.5968 H   0  0  0  0  0  0  0  0  0  0  0  0
   -0.5979    2.1116   -2.5733 H   0  0  0  0  0  0  0  0  0  0  0  0
    0.7880    1.6527   -0.0957 N   0  0  0  0  0  0  0  0  0  0  0  0
   -0.0876    2.4802    0.1617 O   0  0  0  0  0  0  0  0  0  0  0  0
    1.3567    0.9489    0.7358 O   0  0  0  0  0  0  0  0  0  0  0  0
    1.2786    0.5271   -5.4085 N   0  0  0  0  0  0  0  0  0  0  0  0
    1.0738    0.0775   -6.4418 N   0  0  0  0  0  0  0  0  0  0  0  0
    5.7770    2.1215   -3.9521 C   0  0  0  0  0  0  0  0  0  0  0  0
    6.6283    1.0326   -4.1260 C   0  0  0  0  0  0  0  0  0  0  0  0
    6.1485   -0.2733   -4.0015 C   0  0  0  0  0  0  0  0  0  0  0  0
    4.7867   -0.4478   -3.7190 C   0  0  0  0  0  0  0  0  0  0  0  0
    3.9045    0.6202   -3.5336 C   0  0  0  0  0  0  0  0  0  0  0  0
    4.4281    1.9250   -3.6486 C   0  0  0  0  0  0  0  0  0  0  0  0
    6.1491    3.1338   -4.0591 H   0  0  0  0  0  0  0  0  0  0  0  0
    7.6729    1.2065   -4.3671 H   0  0  0  0  0  0  0  0  0  0  0  0
    4.3945   -1.4602   -3.6477 H   0  0  0  0  0  0  0  0  0  0  0  0
    0.3834    3.4297   -2.0045 H   0  0  0  0  0  0  0  0  0  0  0  0
    3.5161    3.4544   -3.3274 S   0  0  0  0  0  0  0  0  0  0  0  0
    2.1482    3.3382   -4.2210 O   0  0  0  0  0  0  0  0  0  0  0  0
    4.2443    4.5455   -3.9572 O   0  0  0  0  0  0  0  0  0  0  0  0
    3.1664    3.5158   -1.9101 O   0  0  0  0  0  0  0  0  0  0  0  0
    7.0615   -1.4647   -4.1522 C   0  0  0  0  0  0  0  0  0  0  0  0
    7.9329   -1.2257   -4.7675 H   0  0  0  0  0  0  0  0  0  0  0  0
    7.4310   -1.7961   -3.1745 H   0  0  0  0  0  0  0  0  0  0  0  0
    6.5430   -2.3134   -4.6077 H   0  0  0  0  0  0  0  0  0  0  0  0
  1  6  2  0  0  0  0
  1  7  1  0  0  0  0
  2  8  1  6  0  0  0
  2  1  1  0  0  0  0
  3 14  1  6  0  0  0
  3  4  1  0  0  0  0
  3  2  1  0  0  0  0
  4  9  1  6  0  0  0
  4  5  1  0  0  0  0
  5 25  1  0  0  0  0
  5  6  1  0  0  0  0
  6 11  1  0  0  0  0
 10  5  1  0  0  0  0
 11 12  2  0  0  0  0
 11 13  2  0  0  0  0
 15 14  1  0  0  0  0
 16 21  2  0  0  0  0
 17 18  2  0  0  0  0
 17 16  1  0  0  0  0
 18 19  1  0  0  0  0
 19 24  1  0  0  0  0
 19 20  2  0  0  0  0
 20  2  1  0  0  0  0
 21 20  1  0  0  0  0
 21 26  1  0  0  0  0
 22 16  1  0  0  0  0
 23 17  1  0  0  0  0
 26 29  2  0  0  0  0
 27  4  1  0  0  0  0
 27 26  1  0  0  0  0
 28 26  2  0  0  0  0
 30 18  1  0  0  0  0
 30 32  1  0  0  0  0
 31 30  1  0  0  0  0
 33 30  1  0  0  0  0
M  RAD  3   3   2  14   2  15   3
M  END
