Coordinates from ORCA-job p-NO2-Ph-N2-H-OTs-B3LYPG-6-31G_dp-scan-d09-49-n400
 OpenBabel08281820503D

 33 35  0  0  1  0  0  0  0  0999 V2000
    2.0838    0.4137   -1.9841 C   0  0  0  0  0  0  0  0  0  0  0  0
    2.3665    0.3908   -3.4730 C   0  0  1  0  0  0  0  0  0  0  0  0
    1.4025    1.3124   -4.1759 C   0  0  1  0  0  0  0  0  0  0  0  0
    1.0589    2.5933   -3.4966 C   0  0  1  0  0  0  0  0  0  0  0  0
    0.4418    2.3340   -2.1223 C   0  0  0  0  0  0  0  0  0  0  0  0
    1.2173    1.2572   -1.4180 C   0  0  0  0  0  0  0  0  0  0  0  0
    2.6122   -0.2942   -1.3550 H   0  0  0  0  0  0  0  0  0  0  0  0
    2.1933   -0.6394   -3.8110 H   0  0  0  0  0  0  0  0  0  0  0  0
    0.4202    3.2243   -4.1172 H   0  0  0  0  0  0  0  0  0  0  0  0
   -0.6116    2.0526   -2.2313 H   0  0  0  0  0  0  0  0  0  0  0  0
    0.9843    1.1423    0.0344 N   0  0  0  0  0  0  0  0  0  0  0  0
    0.1244    1.8865    0.5070 O   0  0  0  0  0  0  0  0  0  0  0  0
    1.6333    0.3190    0.6769 O   0  0  0  0  0  0  0  0  0  0  0  0
    1.0672    1.0974   -5.4121 N   0  0  0  0  0  0  0  0  0  0  0  0
    0.7421    0.8774   -6.4857 N   0  0  0  0  0  0  0  0  0  0  0  0
    5.7910    2.1039   -4.1534 C   0  0  0  0  0  0  0  0  0  0  0  0
    6.6396    1.0066   -4.0532 C   0  0  0  0  0  0  0  0  0  0  0  0
    6.1279   -0.2694   -3.7926 C   0  0  0  0  0  0  0  0  0  0  0  0
    4.7433   -0.4009   -3.6365 C   0  0  0  0  0  0  0  0  0  0  0  0
    3.8600    0.6808   -3.7293 C   0  0  0  0  0  0  0  0  0  0  0  0
    4.4097    1.9497   -3.9965 C   0  0  0  0  0  0  0  0  0  0  0  0
    6.1925    3.0923   -4.3460 H   0  0  0  0  0  0  0  0  0  0  0  0
    7.7092    1.1457   -4.1826 H   0  0  0  0  0  0  0  0  0  0  0  0
    4.3313   -1.3875   -3.4334 H   0  0  0  0  0  0  0  0  0  0  0  0
    0.4728    3.2605   -1.5459 H   0  0  0  0  0  0  0  0  0  0  0  0
    3.4645    3.4641   -4.2721 S   0  0  0  0  0  0  0  0  0  0  0  0
    2.8474    3.4516   -5.5968 O   0  0  0  0  0  0  0  0  0  0  0  0
    4.2943    4.5826   -3.8506 O   0  0  0  0  0  0  0  0  0  0  0  0
    2.2777    3.3597   -3.1536 O   0  0  0  0  0  0  0  0  0  0  0  0
    7.0396   -1.4641   -3.6569 C   0  0  0  0  0  0  0  0  0  0  0  0
    7.9391   -1.3501   -4.2676 H   0  0  0  0  0  0  0  0  0  0  0  0
    7.3642   -1.5895   -2.6171 H   0  0  0  0  0  0  0  0  0  0  0  0
    6.5378   -2.3885   -3.9563 H   0  0  0  0  0  0  0  0  0  0  0  0
  1  6  2  0  0  0  0
  1  7  1  0  0  0  0
  2  8  1  6  0  0  0
  2  1  1  0  0  0  0
  3 14  1  6  0  0  0
  3  4  1  0  0  0  0
  3  2  1  0  0  0  0
  4  9  1  6  0  0  0
  4 29  1  0  0  0  0
  4  5  1  0  0  0  0
  5 25  1  0  0  0  0
  5  6  1  0  0  0  0
  6 11  1  0  0  0  0
 10  5  1  0  0  0  0
 11 12  2  0  0  0  0
 11 13  2  0  0  0  0
 15 14  1  0  0  0  0
 16 17  2  0  0  0  0
 16 21  1  0  0  0  0
 17 18  1  0  0  0  0
 18 30  1  0  0  0  0
 18 19  2  0  0  0  0
 19 24  1  0  0  0  0
 20 19  1  0  0  0  0
 20  2  1  0  0  0  0
 21 20  2  0  0  0  0
 22 16  1  0  0  0  0
 23 17  1  0  0  0  0
 26 21  1  0  0  0  0
 26 28  2  0  0  0  0
 26 29  1  0  0  0  0
 27 26  2  0  0  0  0
 30 32  1  0  0  0  0
 31 30  1  0  0  0  0
 33 30  1  0  0  0  0
M  RAD  3   3   2  14   2  15   3
M  END
