Coordinates from ORCA-job p-NO2-Ph-N2-H-OTs-B3LYPG-6-31G_dp-scan-d09-49-n400
 OpenBabel08281820503D

 33 34  0  0  1  0  0  0  0  0999 V2000
    1.9723    0.7682   -1.6750 C   0  0  0  0  0  0  0  0  0  0  0  0
    2.5023    0.2899   -3.0059 C   0  0  1  0  0  0  0  0  0  0  0  0
    1.4909    0.6635   -4.1080 C   0  0  0  0  0  0  0  0  0  0  0  0
    0.4237    1.5349   -3.9564 C   0  0  0  0  0  0  0  0  0  0  0  0
    0.2657    2.2339   -2.7276 C   0  0  0  0  0  0  0  0  0  0  0  0
    0.9283    1.5901   -1.5649 C   0  0  0  0  0  0  0  0  0  0  0  0
    2.4681    0.4079   -0.7819 H   0  0  0  0  0  0  0  0  0  0  0  0
    2.5176   -0.8068   -2.9435 H   0  0  0  0  0  0  0  0  0  0  0  0
   -0.1924    1.7889   -4.8145 H   0  0  0  0  0  0  0  0  0  0  0  0
   -0.6873    2.7171   -2.5356 H   0  0  0  0  0  0  0  0  0  0  0  0
    0.4743    1.9965   -0.2297 N   0  0  0  0  0  0  0  0  0  0  0  0
   -0.4121    2.8506   -0.1868 O   0  0  0  0  0  0  0  0  0  0  0  0
    0.9823    1.4519    0.7454 O   0  0  0  0  0  0  0  0  0  0  0  0
    1.7136    0.1527   -5.3235 N   0  0  0  0  0  0  0  0  0  0  0  0
    1.9538   -0.3228   -6.3191 N   0  0  0  0  0  0  0  0  0  0  0  0
    5.8119    2.1583   -3.8089 C   0  0  0  0  0  0  0  0  0  0  0  0
    6.5891    1.0839   -4.2338 C   0  0  0  0  0  0  0  0  0  0  0  0
    6.0746   -0.2149   -4.2278 C   0  0  0  0  0  0  0  0  0  0  0  0
    4.7539   -0.3819   -3.7990 C   0  0  0  0  0  0  0  0  0  0  0  0
    3.9459    0.6823   -3.3676 C   0  0  0  0  0  0  0  0  0  0  0  0
    4.4966    1.9846   -3.3692 C   0  0  0  0  0  0  0  0  0  0  0  0
    6.2124    3.1659   -3.8087 H   0  0  0  0  0  0  0  0  0  0  0  0
    7.6075    1.2607   -4.5689 H   0  0  0  0  0  0  0  0  0  0  0  0
    4.3358   -1.3875   -3.7938 H   0  0  0  0  0  0  0  0  0  0  0  0
    1.1110    3.0978   -3.0330 H   0  0  0  0  0  0  0  0  0  0  0  0
    3.6878    3.5096   -2.7602 S   0  0  0  0  0  0  0  0  0  0  0  0
    2.3950    3.5843   -3.5893 O   0  0  0  0  0  0  0  0  0  0  0  0
    4.6011    4.6030   -3.1100 O   0  0  0  0  0  0  0  0  0  0  0  0
    3.4151    3.2783   -1.3300 O   0  0  0  0  0  0  0  0  0  0  0  0
    6.9153   -1.3979   -4.6422 C   0  0  0  0  0  0  0  0  0  0  0  0
    7.6221   -1.1266   -5.4318 H   0  0  0  0  0  0  0  0  0  0  0  0
    7.5031   -1.7762   -3.7967 H   0  0  0  0  0  0  0  0  0  0  0  0
    6.2989   -2.2251   -5.0062 H   0  0  0  0  0  0  0  0  0  0  0  0
  1  6  2  0  0  0  0
  1  7  1  0  0  0  0
  2  8  1  1  0  0  0
  2  1  1  0  0  0  0
  3  4  2  0  0  0  0
  3  2  1  0  0  0  0
  4  5  1  0  0  0  0
  5 10  1  0  0  0  0
  5  6  1  0  0  0  0
  6 11  1  0  0  0  0
  9  4  1  0  0  0  0
 11 12  2  0  0  0  0
 11 13  2  0  0  0  0
 14  3  1  0  0  0  0
 15 14  1  0  0  0  0
 16 22  1  0  0  0  0
 16 21  2  0  0  0  0
 17 18  2  0  0  0  0
 17 16  1  0  0  0  0
 18 19  1  0  0  0  0
 19 24  1  0  0  0  0
 19 20  2  0  0  0  0
 20  2  1  0  0  0  0
 21 20  1  0  0  0  0
 21 26  1  0  0  0  0
 23 17  1  0  0  0  0
 25  5  1  0  0  0  0
 26 29  1  0  0  0  0
 27 26  2  0  0  0  0
 28 26  2  0  0  0  0
 30 18  1  0  0  0  0
 30 32  1  0  0  0  0
 31 30  1  0  0  0  0
 33 30  1  0  0  0  0
M  RAD  3  14   2  15   3  29   2
M  END
