Coordinates from ORCA-job p-NO2-Ph-N2-H-OTs-B3LYPG-6-31G_dp-scan-d09-49-n400
 OpenBabel08281820503D

 33 35  0  0  1  0  0  0  0  0999 V2000
    1.9896    0.5270   -1.8381 C   0  0  0  0  0  0  0  0  0  0  0  0
    2.4221    0.2578   -3.2608 C   0  0  1  0  0  0  0  0  0  0  0  0
    1.4897    0.9715   -4.2158 C   0  0  1  0  0  0  0  0  0  0  0  0
    1.0305    2.3476   -3.8917 C   0  0  1  0  0  0  0  0  0  0  0  0
    0.4856    2.4630   -2.4640 C   0  0  0  0  0  0  0  0  0  0  0  0
    1.1169    1.4830   -1.5218 C   0  0  0  0  0  0  0  0  0  0  0  0
    2.4159   -0.0809   -1.0483 H   0  0  0  0  0  0  0  0  0  0  0  0
    2.3325   -0.8234   -3.4219 H   0  0  0  0  0  0  0  0  0  0  0  0
    0.2739    2.6806   -4.6037 H   0  0  0  0  0  0  0  0  0  0  0  0
   -0.6021    2.3371   -2.4683 H   0  0  0  0  0  0  0  0  0  0  0  0
    0.7352    1.6344   -0.1059 N   0  0  0  0  0  0  0  0  0  0  0  0
   -0.1010    2.5039    0.1406 O   0  0  0  0  0  0  0  0  0  0  0  0
    1.2459    0.8903    0.7286 O   0  0  0  0  0  0  0  0  0  0  0  0
    1.3243    0.5033   -5.4174 N   0  0  0  0  0  0  0  0  0  0  0  0
    1.1459    0.0564   -6.4563 N   0  0  0  0  0  0  0  0  0  0  0  0
    5.7431    2.1260   -3.9860 C   0  0  0  0  0  0  0  0  0  0  0  0
    6.6059    1.0462   -4.1616 C   0  0  0  0  0  0  0  0  0  0  0  0
    6.1477   -0.2642   -4.0082 C   0  0  0  0  0  0  0  0  0  0  0  0
    4.7932   -0.4537   -3.6999 C   0  0  0  0  0  0  0  0  0  0  0  0
    3.9001    0.6045   -3.5138 C   0  0  0  0  0  0  0  0  0  0  0  0
    4.4030    1.9152   -3.6546 C   0  0  0  0  0  0  0  0  0  0  0  0
    6.1002    3.1417   -4.1100 H   0  0  0  0  0  0  0  0  0  0  0  0
    7.6432    1.2312   -4.4249 H   0  0  0  0  0  0  0  0  0  0  0  0
    4.4157   -1.4702   -3.6106 H   0  0  0  0  0  0  0  0  0  0  0  0
    0.7034    3.4825   -2.1445 H   0  0  0  0  0  0  0  0  0  0  0  0
    3.4941    3.4388   -3.2951 S   0  0  0  0  0  0  0  0  0  0  0  0
    2.0864    3.3578   -4.1312 O   0  0  0  0  0  0  0  0  0  0  0  0
    4.1980    4.5404   -3.9343 O   0  0  0  0  0  0  0  0  0  0  0  0
    3.2077    3.4785   -1.8623 O   0  0  0  0  0  0  0  0  0  0  0  0
    7.0747   -1.4448   -4.1576 C   0  0  0  0  0  0  0  0  0  0  0  0
    7.9401   -1.1980   -4.7781 H   0  0  0  0  0  0  0  0  0  0  0  0
    7.4524   -1.7671   -3.1800 H   0  0  0  0  0  0  0  0  0  0  0  0
    6.5646   -2.3021   -4.6066 H   0  0  0  0  0  0  0  0  0  0  0  0
  1  6  2  0  0  0  0
  1  7  1  0  0  0  0
  2  8  1  6  0  0  0
  2  1  1  0  0  0  0
  3 14  1  6  0  0  0
  3  4  1  0  0  0  0
  3  2  1  0  0  0  0
  4  9  1  6  0  0  0
  4  5  1  0  0  0  0
  5 25  1  0  0  0  0
  5  6  1  0  0  0  0
  6 11  1  0  0  0  0
 10  5  1  0  0  0  0
 11 12  2  0  0  0  0
 11 13  2  0  0  0  0
 15 14  1  0  0  0  0
 16 21  2  0  0  0  0
 17 18  2  0  0  0  0
 17 16  1  0  0  0  0
 18 19  1  0  0  0  0
 19 24  1  0  0  0  0
 19 20  2  0  0  0  0
 20  2  1  0  0  0  0
 21 20  1  0  0  0  0
 21 26  1  0  0  0  0
 22 16  1  0  0  0  0
 23 17  1  0  0  0  0
 26 29  2  0  0  0  0
 27  4  1  0  0  0  0
 27 26  1  0  0  0  0
 28 26  2  0  0  0  0
 30 18  1  0  0  0  0
 30 32  1  0  0  0  0
 31 30  1  0  0  0  0
 33 30  1  0  0  0  0
M  RAD  3   3   2  14   2  15   3
M  END
