Coordinates from ORCA-job p-NO2-Ph-N2-H-OTs-B3LYPG-6-31G_dp-scan-d09-49-n400
 OpenBabel08281820503D

 33 35  0  0  1  0  0  0  0  0999 V2000
    1.9613    0.5249   -1.8184 C   0  0  0  0  0  0  0  0  0  0  0  0
    2.4239    0.2416   -3.2300 C   0  0  1  0  0  0  0  0  0  0  0  0
    1.5180    0.9505   -4.2132 C   0  0  1  0  0  0  0  0  0  0  0  0
    1.0144    2.3028   -3.8912 C   0  0  1  0  0  0  0  0  0  0  0  0
    0.4880    2.4696   -2.4717 C   0  0  0  0  0  0  0  0  0  0  0  0
    1.0828    1.4824   -1.5193 C   0  0  0  0  0  0  0  0  0  0  0  0
    2.3691   -0.0816   -1.0177 H   0  0  0  0  0  0  0  0  0  0  0  0
    2.3374   -0.8416   -3.3805 H   0  0  0  0  0  0  0  0  0  0  0  0
    0.2821    2.6362   -4.6276 H   0  0  0  0  0  0  0  0  0  0  0  0
   -0.6019    2.4880   -2.4119 H   0  0  0  0  0  0  0  0  0  0  0  0
    0.6820    1.6412   -0.1087 N   0  0  0  0  0  0  0  0  0  0  0  0
   -0.1357    2.5305    0.1260 O   0  0  0  0  0  0  0  0  0  0  0  0
    1.1618    0.8834    0.7320 O   0  0  0  0  0  0  0  0  0  0  0  0
    1.4006    0.4882   -5.4238 N   0  0  0  0  0  0  0  0  0  0  0  0
    1.2666    0.0440   -6.4699 N   0  0  0  0  0  0  0  0  0  0  0  0
    5.7129    2.1268   -4.0205 C   0  0  0  0  0  0  0  0  0  0  0  0
    6.5819    1.0532   -4.2066 C   0  0  0  0  0  0  0  0  0  0  0  0
    6.1424   -0.2597   -4.0242 C   0  0  0  0  0  0  0  0  0  0  0  0
    4.7976   -0.4600   -3.6807 C   0  0  0  0  0  0  0  0  0  0  0  0
    3.8997    0.5914   -3.4846 C   0  0  0  0  0  0  0  0  0  0  0  0
    4.3844    1.9057   -3.6522 C   0  0  0  0  0  0  0  0  0  0  0  0
    6.0572    3.1448   -4.1613 H   0  0  0  0  0  0  0  0  0  0  0  0
    7.6099    1.2455   -4.4990 H   0  0  0  0  0  0  0  0  0  0  0  0
    4.4318   -1.4791   -3.5733 H   0  0  0  0  0  0  0  0  0  0  0  0
    0.9080    3.4670   -2.3280 H   0  0  0  0  0  0  0  0  0  0  0  0
    3.4864    3.4228   -3.2402 S   0  0  0  0  0  0  0  0  0  0  0  0
    2.0298    3.3835   -3.9971 O   0  0  0  0  0  0  0  0  0  0  0  0
    4.1646    4.5369   -3.8869 O   0  0  0  0  0  0  0  0  0  0  0  0
    3.2729    3.4341   -1.7939 O   0  0  0  0  0  0  0  0  0  0  0  0
    7.0775   -1.4327   -4.1827 C   0  0  0  0  0  0  0  0  0  0  0  0
    7.9380   -1.1772   -4.8063 H   0  0  0  0  0  0  0  0  0  0  0  0
    7.4616   -1.7566   -3.2081 H   0  0  0  0  0  0  0  0  0  0  0  0
    6.5714   -2.2920   -4.6328 H   0  0  0  0  0  0  0  0  0  0  0  0
  1  6  2  0  0  0  0
  1  7  1  0  0  0  0
  2  8  1  6  0  0  0
  2  1  1  0  0  0  0
  3 14  1  6  0  0  0
  3  4  1  0  0  0  0
  3  2  1  0  0  0  0
  4  9  1  6  0  0  0
  4  5  1  0  0  0  0
  5 10  1  0  0  0  0
  5 25  1  0  0  0  0
  5  6  1  0  0  0  0
  6 11  1  0  0  0  0
 11 12  2  0  0  0  0
 11 13  2  0  0  0  0
 15 14  1  0  0  0  0
 16 21  2  0  0  0  0
 17 18  2  0  0  0  0
 17 16  1  0  0  0  0
 18 19  1  0  0  0  0
 19 24  1  0  0  0  0
 19 20  2  0  0  0  0
 20  2  1  0  0  0  0
 21 20  1  0  0  0  0
 21 26  1  0  0  0  0
 22 16  1  0  0  0  0
 23 17  1  0  0  0  0
 26 29  2  0  0  0  0
 27  4  1  0  0  0  0
 27 26  1  0  0  0  0
 28 26  2  0  0  0  0
 30 18  1  0  0  0  0
 30 32  1  0  0  0  0
 31 30  1  0  0  0  0
 33 30  1  0  0  0  0
M  RAD  3   3   2  14   2  15   3
M  END
