Coordinates from ORCA-job p-NO2-Ph-N2-H-OTs-B3LYPG-6-31G_dp-scan-d09-49-n400
 OpenBabel08281820503D

 33 35  0  0  1  0  0  0  0  0999 V2000
    2.0582    0.4235   -1.9419 C   0  0  0  0  0  0  0  0  0  0  0  0
    2.3806    0.3728   -3.4240 C   0  0  1  0  0  0  0  0  0  0  0  0
    1.4271    1.2724   -4.1654 C   0  0  1  0  0  0  0  0  0  0  0  0
    1.0760    2.5548   -3.5027 C   0  0  1  0  0  0  0  0  0  0  0  0
    0.4230    2.3432   -2.1498 C   0  0  0  0  0  0  0  0  0  0  0  0
    1.1678    1.2673   -1.4114 C   0  0  0  0  0  0  0  0  0  0  0  0
    2.5675   -0.2758   -1.2876 H   0  0  0  0  0  0  0  0  0  0  0  0
    2.2222   -0.6667   -3.7398 H   0  0  0  0  0  0  0  0  0  0  0  0
    0.4972    3.2137   -4.1501 H   0  0  0  0  0  0  0  0  0  0  0  0
   -0.6447    2.1212   -2.2370 H   0  0  0  0  0  0  0  0  0  0  0  0
    0.8894    1.1682    0.0333 N   0  0  0  0  0  0  0  0  0  0  0  0
    0.0231    1.9257    0.4710 O   0  0  0  0  0  0  0  0  0  0  0  0
    1.5088    0.3437    0.7034 O   0  0  0  0  0  0  0  0  0  0  0  0
    1.1482    1.0582   -5.4156 N   0  0  0  0  0  0  0  0  0  0  0  0
    0.8672    0.8348   -6.5010 N   0  0  0  0  0  0  0  0  0  0  0  0
    5.7836    2.0970   -4.2018 C   0  0  0  0  0  0  0  0  0  0  0  0
    6.6379    1.0024   -4.1242 C   0  0  0  0  0  0  0  0  0  0  0  0
    6.1395   -0.2708   -3.8267 C   0  0  0  0  0  0  0  0  0  0  0  0
    4.7618   -0.4035   -3.6189 C   0  0  0  0  0  0  0  0  0  0  0  0
    3.8715    0.6742   -3.6912 C   0  0  0  0  0  0  0  0  0  0  0  0
    4.4096    1.9430   -3.9910 C   0  0  0  0  0  0  0  0  0  0  0  0
    6.1771    3.0848   -4.4135 H   0  0  0  0  0  0  0  0  0  0  0  0
    7.7012    1.1417   -4.2972 H   0  0  0  0  0  0  0  0  0  0  0  0
    4.3600   -1.3894   -3.3938 H   0  0  0  0  0  0  0  0  0  0  0  0
    0.5499    3.3114   -1.6695 H   0  0  0  0  0  0  0  0  0  0  0  0
    3.4557    3.4671   -4.1789 S   0  0  0  0  0  0  0  0  0  0  0  0
    2.7457    3.5296   -5.4516 O   0  0  0  0  0  0  0  0  0  0  0  0
    4.3038    4.5642   -3.7383 O   0  0  0  0  0  0  0  0  0  0  0  0
    2.3000    3.2808   -3.0597 O   0  0  0  0  0  0  0  0  0  0  0  0
    7.0593   -1.4611   -3.7109 C   0  0  0  0  0  0  0  0  0  0  0  0
    7.9149   -1.3700   -4.3858 H   0  0  0  0  0  0  0  0  0  0  0  0
    7.4558   -1.5486   -2.6922 H   0  0  0  0  0  0  0  0  0  0  0  0
    6.5395   -2.3952   -3.9406 H   0  0  0  0  0  0  0  0  0  0  0  0
  1  6  2  0  0  0  0
  1  7  1  0  0  0  0
  2  8  1  6  0  0  0
  2  1  1  0  0  0  0
  3 14  1  6  0  0  0
  3  4  1  0  0  0  0
  3  2  1  0  0  0  0
  4  9  1  6  0  0  0
  4 29  1  0  0  0  0
  4  5  1  0  0  0  0
  5 25  1  0  0  0  0
  5  6  1  0  0  0  0
  6 11  1  0  0  0  0
 10  5  1  0  0  0  0
 11 12  2  0  0  0  0
 11 13  2  0  0  0  0
 15 14  1  0  0  0  0
 16 17  2  0  0  0  0
 16 21  1  0  0  0  0
 17 18  1  0  0  0  0
 18 30  1  0  0  0  0
 18 19  2  0  0  0  0
 19 24  1  0  0  0  0
 20 19  1  0  0  0  0
 20  2  1  0  0  0  0
 21 20  2  0  0  0  0
 22 16  1  0  0  0  0
 23 17  1  0  0  0  0
 26 21  1  0  0  0  0
 26 28  2  0  0  0  0
 26 29  1  0  0  0  0
 27 26  2  0  0  0  0
 30 32  1  0  0  0  0
 31 30  1  0  0  0  0
 33 30  1  0  0  0  0
M  RAD  3   3   2  14   2  15   3
M  END
