Coordinates from ORCA-job p-NO2-Ph-N2-H-OTs-B3LYPG-6-31G_dp-scan-d09-49-n400
 OpenBabel08281820503D

 33 34  0  0  1  0  0  0  0  0999 V2000
    2.0905    0.4872   -1.9344 C   0  0  0  0  0  0  0  0  0  0  0  0
    2.3846    0.4141   -3.4147 C   0  0  1  0  0  0  0  0  0  0  0  0
    1.3529    1.2462   -4.1557 C   0  0  0  0  0  0  0  0  0  0  0  0
    0.4753    2.1148   -3.6047 C   0  0  0  0  0  0  0  0  0  0  0  0
    0.3012    2.2464   -2.1380 C   0  0  0  0  0  0  0  0  0  0  0  0
    1.1644    1.2778   -1.3947 C   0  0  0  0  0  0  0  0  0  0  0  0
    2.6844   -0.1493   -1.2883 H   0  0  0  0  0  0  0  0  0  0  0  0
    2.2421   -0.6349   -3.7121 H   0  0  0  0  0  0  0  0  0  0  0  0
   -0.1169    2.7566   -4.2488 H   0  0  0  0  0  0  0  0  0  0  0  0
   -0.7536    2.1603   -1.8524 H   0  0  0  0  0  0  0  0  0  0  0  0
    0.9750    1.2452    0.0639 N   0  0  0  0  0  0  0  0  0  0  0  0
    0.1075    1.9949    0.5139 O   0  0  0  0  0  0  0  0  0  0  0  0
    1.6670    0.4820    0.7334 O   0  0  0  0  0  0  0  0  0  0  0  0
    1.4314    1.2199   -5.5241 N   0  0  0  0  0  0  0  0  0  0  0  0
    1.4727    1.0520   -6.6287 N   0  0  0  0  0  0  0  0  0  0  0  0
    5.8187    2.1112   -4.0588 C   0  0  0  0  0  0  0  0  0  0  0  0
    6.6429    0.9898   -4.0216 C   0  0  0  0  0  0  0  0  0  0  0  0
    6.1049   -0.2876   -3.8348 C   0  0  0  0  0  0  0  0  0  0  0  0
    4.7182   -0.3907   -3.6846 C   0  0  0  0  0  0  0  0  0  0  0  0
    3.8693    0.7254   -3.7029 C   0  0  0  0  0  0  0  0  0  0  0  0
    4.4354    2.0018   -3.8992 C   0  0  0  0  0  0  0  0  0  0  0  0
    6.2300    3.1021   -4.2164 H   0  0  0  0  0  0  0  0  0  0  0  0
    7.7158    1.1091   -4.1501 H   0  0  0  0  0  0  0  0  0  0  0  0
    4.2828   -1.3784   -3.5401 H   0  0  0  0  0  0  0  0  0  0  0  0
    0.6269    3.2739   -1.9304 H   0  0  0  0  0  0  0  0  0  0  0  0
    3.4758    3.5420   -4.0773 S   0  0  0  0  0  0  0  0  0  0  0  0
    2.6894    3.3149   -5.3313 O   0  0  0  0  0  0  0  0  0  0  0  0
    4.4585    4.6304   -4.1468 O   0  0  0  0  0  0  0  0  0  0  0  0
    2.5742    3.5630   -2.8856 O   0  0  0  0  0  0  0  0  0  0  0  0
    6.9878   -1.5110   -3.7759 C   0  0  0  0  0  0  0  0  0  0  0  0
    7.8584   -1.4044   -4.4293 H   0  0  0  0  0  0  0  0  0  0  0  0
    7.3635   -1.6763   -2.7590 H   0  0  0  0  0  0  0  0  0  0  0  0
    6.4471   -2.4137   -4.0747 H   0  0  0  0  0  0  0  0  0  0  0  0
  1  6  2  0  0  0  0
  1  7  1  0  0  0  0
  2  8  1  6  0  0  0
  2  1  1  0  0  0  0
  3  4  2  0  0  0  0
  3  2  1  0  0  0  0
  4  5  1  0  0  0  0
  5 25  1  0  0  0  0
  5 10  1  0  0  0  0
  5  6  1  0  0  0  0
  6 11  1  0  0  0  0
  9  4  1  0  0  0  0
 11 12  2  0  0  0  0
 11 13  2  0  0  0  0
 14  3  1  0  0  0  0
 15 14  1  0  0  0  0
 16 17  2  0  0  0  0
 16 21  1  0  0  0  0
 17 18  1  0  0  0  0
 18 30  1  0  0  0  0
 18 19  2  0  0  0  0
 19 24  1  0  0  0  0
 20 19  1  0  0  0  0
 20  2  1  0  0  0  0
 21 20  2  0  0  0  0
 22 16  1  0  0  0  0
 23 17  1  0  0  0  0
 26 21  1  0  0  0  0
 26 29  1  0  0  0  0
 27 26  2  0  0  0  0
 28 26  2  0  0  0  0
 30 32  1  0  0  0  0
 31 30  1  0  0  0  0
 33 30  1  0  0  0  0
M  RAD  3  14   2  15   3  29   2
M  END
