Coordinates from ORCA-job p-NO2-Ph-N2-H-OTs-B3LYPG-6-31G_dp-scan-d09-49-n400
 OpenBabel08281820503D

 33 35  0  0  1  0  0  0  0  0999 V2000
    2.0385    0.5740   -1.8440 C   0  0  0  0  0  0  0  0  0  0  0  0
    2.4255    0.3020   -3.2778 C   0  0  1  0  0  0  0  0  0  0  0  0
    1.4677    1.0163   -4.2101 C   0  0  1  0  0  0  0  0  0  0  0  0
    1.0494    2.4153   -3.8915 C   0  0  1  0  0  0  0  0  0  0  0  0
    0.4179    2.4179   -2.4613 C   0  0  0  0  0  0  0  0  0  0  0  0
    1.1455    1.5054   -1.5140 C   0  0  0  0  0  0  0  0  0  0  0  0
    2.5229   -0.0002   -1.0627 H   0  0  0  0  0  0  0  0  0  0  0  0
    2.3238   -0.7785   -3.4373 H   0  0  0  0  0  0  0  0  0  0  0  0
    0.2945    2.7673   -4.5951 H   0  0  0  0  0  0  0  0  0  0  0  0
   -0.5861    2.0021   -2.6294 H   0  0  0  0  0  0  0  0  0  0  0  0
    0.8048    1.6620   -0.0878 N   0  0  0  0  0  0  0  0  0  0  0  0
   -0.0935    2.4633    0.1760 O   0  0  0  0  0  0  0  0  0  0  0  0
    1.4047    0.9823    0.7416 O   0  0  0  0  0  0  0  0  0  0  0  0
    1.2689    0.5433   -5.4039 N   0  0  0  0  0  0  0  0  0  0  0  0
    1.0585    0.0932   -6.4360 N   0  0  0  0  0  0  0  0  0  0  0  0
    5.7933    2.1186   -3.9428 C   0  0  0  0  0  0  0  0  0  0  0  0
    6.6377    1.0244   -4.1165 C   0  0  0  0  0  0  0  0  0  0  0  0
    6.1477   -0.2785   -4.0005 C   0  0  0  0  0  0  0  0  0  0  0  0
    4.7835   -0.4444   -3.7245 C   0  0  0  0  0  0  0  0  0  0  0  0
    3.9081    0.6293   -3.5388 C   0  0  0  0  0  0  0  0  0  0  0  0
    4.4417    1.9304   -3.6466 C   0  0  0  0  0  0  0  0  0  0  0  0
    6.1726    3.1287   -4.0453 H   0  0  0  0  0  0  0  0  0  0  0  0
    7.6848    1.1916   -4.3517 H   0  0  0  0  0  0  0  0  0  0  0  0
    4.3840   -1.4543   -3.6581 H   0  0  0  0  0  0  0  0  0  0  0  0
    0.2164    3.3734   -1.9506 H   0  0  0  0  0  0  0  0  0  0  0  0
    3.5310    3.4631   -3.3405 S   0  0  0  0  0  0  0  0  0  0  0  0
    2.1780    3.3337   -4.2535 O   0  0  0  0  0  0  0  0  0  0  0  0
    4.2698    4.5489   -3.9673 O   0  0  0  0  0  0  0  0  0  0  0  0
    3.1591    3.5333   -1.9295 O   0  0  0  0  0  0  0  0  0  0  0  0
    7.0528   -1.4758   -4.1526 C   0  0  0  0  0  0  0  0  0  0  0  0
    7.9263   -1.2416   -4.7667 H   0  0  0  0  0  0  0  0  0  0  0  0
    7.4194   -1.8115   -3.1752 H   0  0  0  0  0  0  0  0  0  0  0  0
    6.5290   -2.3202   -4.6101 H   0  0  0  0  0  0  0  0  0  0  0  0
  1  6  2  0  0  0  0
  1  7  1  0  0  0  0
  2  8  1  6  0  0  0
  2  1  1  0  0  0  0
  3 14  1  6  0  0  0
  3  4  1  0  0  0  0
  3  2  1  0  0  0  0
  4  9  1  6  0  0  0
  4  5  1  0  0  0  0
  5 25  1  0  0  0  0
  5  6  1  0  0  0  0
  6 11  1  0  0  0  0
 10  5  1  0  0  0  0
 11 12  2  0  0  0  0
 11 13  2  0  0  0  0
 15 14  1  0  0  0  0
 16 21  2  0  0  0  0
 17 18  2  0  0  0  0
 17 16  1  0  0  0  0
 18 19  1  0  0  0  0
 19 24  1  0  0  0  0
 19 20  2  0  0  0  0
 20  2  1  0  0  0  0
 21 20  1  0  0  0  0
 21 26  1  0  0  0  0
 22 16  1  0  0  0  0
 23 17  1  0  0  0  0
 26 29  2  0  0  0  0
 27  4  1  0  0  0  0
 27 26  1  0  0  0  0
 28 26  2  0  0  0  0
 30 18  1  0  0  0  0
 30 32  1  0  0  0  0
 31 30  1  0  0  0  0
 33 30  1  0  0  0  0
M  RAD  3   3   2  14   2  15   3
M  END
