Coordinates from ORCA-job p-NO2-Ph-N2-H-OTs-B3LYPG-6-31G_dp-scan-d09-49-n400
 OpenBabel08281820503D

 33 34  0  0  1  0  0  0  0  0999 V2000
    1.9802    0.7476   -1.6848 C   0  0  0  0  0  0  0  0  0  0  0  0
    2.4793    0.2982   -3.0390 C   0  0  1  0  0  0  0  0  0  0  0  0
    1.4696    0.7009   -4.1284 C   0  0  0  0  0  0  0  0  0  0  0  0
    0.3643    1.5769   -3.8914 C   0  0  0  0  0  0  0  0  0  0  0  0
    0.1047    2.0420   -2.6330 C   0  0  0  0  0  0  0  0  0  0  0  0
    0.8902    1.5104   -1.5279 C   0  0  0  0  0  0  0  0  0  0  0  0
    2.5397    0.4327   -0.8125 H   0  0  0  0  0  0  0  0  0  0  0  0
    2.5014   -0.8001   -2.9917 H   0  0  0  0  0  0  0  0  0  0  0  0
   -0.2337    1.9015   -4.7372 H   0  0  0  0  0  0  0  0  0  0  0  0
   -0.7361    2.6872   -2.4186 H   0  0  0  0  0  0  0  0  0  0  0  0
    0.4871    1.8934   -0.1633 N   0  0  0  0  0  0  0  0  0  0  0  0
   -0.4493    2.6862   -0.0668 O   0  0  0  0  0  0  0  0  0  0  0  0
    1.0921    1.3950    0.7810 O   0  0  0  0  0  0  0  0  0  0  0  0
    1.6823    0.2596   -5.3456 N   0  0  0  0  0  0  0  0  0  0  0  0
    1.9036   -0.1560   -6.3855 N   0  0  0  0  0  0  0  0  0  0  0  0
    5.8215    2.1563   -3.8190 C   0  0  0  0  0  0  0  0  0  0  0  0
    6.6037    1.0723   -4.2091 C   0  0  0  0  0  0  0  0  0  0  0  0
    6.0829   -0.2221   -4.1872 C   0  0  0  0  0  0  0  0  0  0  0  0
    4.7534   -0.3785   -3.7767 C   0  0  0  0  0  0  0  0  0  0  0  0
    3.9346    0.6864   -3.3772 C   0  0  0  0  0  0  0  0  0  0  0  0
    4.4990    1.9841   -3.4013 C   0  0  0  0  0  0  0  0  0  0  0  0
    6.2284    3.1605   -3.8357 H   0  0  0  0  0  0  0  0  0  0  0  0
    7.6267    1.2418   -4.5324 H   0  0  0  0  0  0  0  0  0  0  0  0
    4.3304   -1.3812   -3.7699 H   0  0  0  0  0  0  0  0  0  0  0  0
    1.4480    3.1766   -3.2889 H   0  0  0  0  0  0  0  0  0  0  0  0
    3.7080    3.5231   -2.8440 S   0  0  0  0  0  0  0  0  0  0  0  0
    2.4218    3.6646   -3.7943 O   0  0  0  0  0  0  0  0  0  0  0  0
    4.6026    4.6154   -3.2079 O   0  0  0  0  0  0  0  0  0  0  0  0
    3.2901    3.3510   -1.4511 O   0  0  0  0  0  0  0  0  0  0  0  0
    6.9205   -1.4168   -4.5710 C   0  0  0  0  0  0  0  0  0  0  0  0
    7.6961   -1.1436   -5.2918 H   0  0  0  0  0  0  0  0  0  0  0  0
    7.4240   -1.8382   -3.6924 H   0  0  0  0  0  0  0  0  0  0  0  0
    6.3109   -2.2122   -5.0095 H   0  0  0  0  0  0  0  0  0  0  0  0
  1  6  2  0  0  0  0
  1  7  1  0  0  0  0
  2  8  1  1  0  0  0
  2  1  1  0  0  0  0
  3  4  2  0  0  0  0
  3  2  1  0  0  0  0
  4  5  1  0  0  0  0
  5 10  1  0  0  0  0
  5  6  1  0  0  0  0
  6 11  1  0  0  0  0
  9  4  1  0  0  0  0
 11 12  2  0  0  0  0
 11 13  2  0  0  0  0
 14  3  1  0  0  0  0
 15 14  1  0  0  0  0
 16 21  2  0  0  0  0
 17 18  2  0  0  0  0
 17 16  1  0  0  0  0
 18 19  1  0  0  0  0
 19 24  1  0  0  0  0
 19 20  2  0  0  0  0
 20  2  1  0  0  0  0
 21 20  1  0  0  0  0
 21 26  1  0  0  0  0
 22 16  1  0  0  0  0
 23 17  1  0  0  0  0
 26 29  2  0  0  0  0
 27 25  1  0  0  0  0
 27 26  1  0  0  0  0
 28 26  2  0  0  0  0
 30 18  1  0  0  0  0
 30 32  1  0  0  0  0
 31 30  1  0  0  0  0
 33 30  1  0  0  0  0
M  RAD  3   5   2  14   2  15   3
M  END
