Coordinates from ORCA-job p-NO2-Ph-N2-H-OTs-B3LYPG-6-31G_dp-scan-d09-49-n400
 OpenBabel08281820503D

 33 35  0  0  1  0  0  0  0  0999 V2000
    2.0029    0.5363   -1.8413 C   0  0  0  0  0  0  0  0  0  0  0  0
    2.4231    0.2678   -3.2673 C   0  0  1  0  0  0  0  0  0  0  0  0
    1.4822    0.9817   -4.2144 C   0  0  1  0  0  0  0  0  0  0  0  0
    1.0376    2.3657   -3.8923 C   0  0  1  0  0  0  0  0  0  0  0  0
    0.4722    2.4540   -2.4634 C   0  0  0  0  0  0  0  0  0  0  0  0
    1.1276    1.4880   -1.5210 C   0  0  0  0  0  0  0  0  0  0  0  0
    2.4423   -0.0654   -1.0539 H   0  0  0  0  0  0  0  0  0  0  0  0
    2.3311   -0.8131   -3.4290 H   0  0  0  0  0  0  0  0  0  0  0  0
    0.2786    2.7022   -4.6000 H   0  0  0  0  0  0  0  0  0  0  0  0
   -0.6039    2.2497   -2.5085 H   0  0  0  0  0  0  0  0  0  0  0  0
    0.7556    1.6400   -0.1026 N   0  0  0  0  0  0  0  0  0  0  0  0
   -0.0949    2.4949    0.1475 O   0  0  0  0  0  0  0  0  0  0  0  0
    1.2866    0.9094    0.7311 O   0  0  0  0  0  0  0  0  0  0  0  0
    1.3037    0.5111   -5.4130 N   0  0  0  0  0  0  0  0  0  0  0  0
    1.1131    0.0627   -6.4492 N   0  0  0  0  0  0  0  0  0  0  0  0
    5.7572    2.1246   -3.9715 C   0  0  0  0  0  0  0  0  0  0  0  0
    6.6156    1.0413   -4.1464 C   0  0  0  0  0  0  0  0  0  0  0  0
    6.1486   -0.2675   -4.0052 C   0  0  0  0  0  0  0  0  0  0  0  0
    4.7911   -0.4512   -3.7076 C   0  0  0  0  0  0  0  0  0  0  0  0
    3.9022    0.6108   -3.5216 C   0  0  0  0  0  0  0  0  0  0  0  0
    4.4133    1.9193   -3.6516 C   0  0  0  0  0  0  0  0  0  0  0  0
    6.1202    3.1390   -4.0884 H   0  0  0  0  0  0  0  0  0  0  0  0
    7.6559    1.2220   -4.4005 H   0  0  0  0  0  0  0  0  0  0  0  0
    4.4078   -1.4662   -3.6259 H   0  0  0  0  0  0  0  0  0  0  0  0
    0.5808    3.4714   -2.0819 H   0  0  0  0  0  0  0  0  0  0  0  0
    3.5022    3.4454   -3.3099 S   0  0  0  0  0  0  0  0  0  0  0  0
    2.1121    3.3486   -4.1723 O   0  0  0  0  0  0  0  0  0  0  0  0
    4.2166    4.5423   -3.9456 O   0  0  0  0  0  0  0  0  0  0  0  0
    3.1879    3.4954   -1.8835 O   0  0  0  0  0  0  0  0  0  0  0  0
    7.0700   -1.4524   -4.1556 C   0  0  0  0  0  0  0  0  0  0  0  0
    7.9381   -1.2084   -4.7735 H   0  0  0  0  0  0  0  0  0  0  0  0
    7.4441   -1.7790   -3.1780 H   0  0  0  0  0  0  0  0  0  0  0  0
    6.5567   -2.3059   -4.6079 H   0  0  0  0  0  0  0  0  0  0  0  0
  1  6  2  0  0  0  0
  1  7  1  0  0  0  0
  2  8  1  6  0  0  0
  2  1  1  0  0  0  0
  3 14  1  6  0  0  0
  3  4  1  0  0  0  0
  3  2  1  0  0  0  0
  4  9  1  6  0  0  0
  4  5  1  0  0  0  0
  5 25  1  0  0  0  0
  5  6  1  0  0  0  0
  6 11  1  0  0  0  0
 10  5  1  0  0  0  0
 11 12  2  0  0  0  0
 11 13  2  0  0  0  0
 15 14  1  0  0  0  0
 16 21  2  0  0  0  0
 17 18  2  0  0  0  0
 17 16  1  0  0  0  0
 18 19  1  0  0  0  0
 19 24  1  0  0  0  0
 19 20  2  0  0  0  0
 20  2  1  0  0  0  0
 21 20  1  0  0  0  0
 21 26  1  0  0  0  0
 22 16  1  0  0  0  0
 23 17  1  0  0  0  0
 26 29  2  0  0  0  0
 27  4  1  0  0  0  0
 27 26  1  0  0  0  0
 28 26  2  0  0  0  0
 30 18  1  0  0  0  0
 30 32  1  0  0  0  0
 31 30  1  0  0  0  0
 33 30  1  0  0  0  0
M  RAD  3   3   2  14   2  15   3
M  END
