Coordinates from ORCA-job p-NO2-Ph-N2-H-OTs-B3LYPG-6-31G_dp-scan-d09-49-n400
 OpenBabel08281820503D

 33 35  0  0  1  0  0  0  0  0999 V2000
    2.0633    0.4210   -1.9508 C   0  0  0  0  0  0  0  0  0  0  0  0
    2.3776    0.3760   -3.4343 C   0  0  1  0  0  0  0  0  0  0  0  0
    1.4218    1.2800   -4.1678 C   0  0  1  0  0  0  0  0  0  0  0  0
    1.0724    2.5622   -3.5019 C   0  0  1  0  0  0  0  0  0  0  0  0
    0.4272    2.3416   -2.1442 C   0  0  0  0  0  0  0  0  0  0  0  0
    1.1777    1.2648   -1.4130 C   0  0  0  0  0  0  0  0  0  0  0  0
    2.5763   -0.2803   -1.3015 H   0  0  0  0  0  0  0  0  0  0  0  0
    2.2164   -0.6617   -3.7549 H   0  0  0  0  0  0  0  0  0  0  0  0
    0.4815    3.2157   -4.1444 H   0  0  0  0  0  0  0  0  0  0  0  0
   -0.6385    2.1097   -2.2335 H   0  0  0  0  0  0  0  0  0  0  0  0
    0.9085    1.1626    0.0333 N   0  0  0  0  0  0  0  0  0  0  0  0
    0.0448    1.9190    0.4783 O   0  0  0  0  0  0  0  0  0  0  0  0
    1.5337    0.3382    0.6980 O   0  0  0  0  0  0  0  0  0  0  0  0
    1.1312    1.0654   -5.4153 N   0  0  0  0  0  0  0  0  0  0  0  0
    0.8410    0.8425   -6.4982 N   0  0  0  0  0  0  0  0  0  0  0  0
    5.7852    2.0985   -4.1917 C   0  0  0  0  0  0  0  0  0  0  0  0
    6.6385    1.0034   -4.1095 C   0  0  0  0  0  0  0  0  0  0  0  0
    6.1373   -0.2704   -3.8197 C   0  0  0  0  0  0  0  0  0  0  0  0
    4.7580   -0.4031   -3.6227 C   0  0  0  0  0  0  0  0  0  0  0  0
    3.8690    0.6753   -3.6992 C   0  0  0  0  0  0  0  0  0  0  0  0
    4.4095    1.9444   -3.9921 C   0  0  0  0  0  0  0  0  0  0  0  0
    6.1803    3.0865   -4.3992 H   0  0  0  0  0  0  0  0  0  0  0  0
    7.7032    1.1429   -4.2734 H   0  0  0  0  0  0  0  0  0  0  0  0
    4.3541   -1.3892   -3.4023 H   0  0  0  0  0  0  0  0  0  0  0  0
    0.5384    3.3028   -1.6455 H   0  0  0  0  0  0  0  0  0  0  0  0
    3.4568    3.4666   -4.1973 S   0  0  0  0  0  0  0  0  0  0  0  0
    2.7637    3.5135   -5.4805 O   0  0  0  0  0  0  0  0  0  0  0  0
    4.3015    4.5683   -3.7615 O   0  0  0  0  0  0  0  0  0  0  0  0
    2.2954    3.2966   -3.0778 O   0  0  0  0  0  0  0  0  0  0  0  0
    7.0556   -1.4616   -3.6998 C   0  0  0  0  0  0  0  0  0  0  0  0
    7.9221   -1.3641   -4.3595 H   0  0  0  0  0  0  0  0  0  0  0  0
    7.4349   -1.5587   -2.6755 H   0  0  0  0  0  0  0  0  0  0  0  0
    6.5399   -2.3936   -3.9470 H   0  0  0  0  0  0  0  0  0  0  0  0
  1  6  2  0  0  0  0
  1  7  1  0  0  0  0
  2  8  1  6  0  0  0
  2  1  1  0  0  0  0
  3 14  1  6  0  0  0
  3  4  1  0  0  0  0
  3  2  1  0  0  0  0
  4  9  1  6  0  0  0
  4 29  1  0  0  0  0
  4  5  1  0  0  0  0
  5 25  1  0  0  0  0
  5  6  1  0  0  0  0
  6 11  1  0  0  0  0
 10  5  1  0  0  0  0
 11 12  2  0  0  0  0
 11 13  2  0  0  0  0
 15 14  1  0  0  0  0
 16 17  2  0  0  0  0
 16 21  1  0  0  0  0
 17 18  1  0  0  0  0
 18 30  1  0  0  0  0
 18 19  2  0  0  0  0
 19 24  1  0  0  0  0
 20 19  1  0  0  0  0
 20  2  1  0  0  0  0
 21 20  2  0  0  0  0
 22 16  1  0  0  0  0
 23 17  1  0  0  0  0
 26 21  1  0  0  0  0
 26 28  2  0  0  0  0
 26 29  1  0  0  0  0
 27 26  2  0  0  0  0
 30 32  1  0  0  0  0
 31 30  1  0  0  0  0
 33 30  1  0  0  0  0
M  RAD  3   3   2  14   2  15   3
M  END
