Coordinates from ORCA-job p-NO2-Ph-N2-H-OTs-B3LYPG-6-31G_dp-scan-d09-49-n400
 OpenBabel08281820503D

 33 35  0  0  1  0  0  0  0  0999 V2000
    2.0636    0.6134   -1.8398 C   0  0  0  0  0  0  0  0  0  0  0  0
    2.4297    0.3373   -3.2779 C   0  0  1  0  0  0  0  0  0  0  0  0
    1.4631    1.0515   -4.2037 C   0  0  1  0  0  0  0  0  0  0  0  0
    1.0515    2.4546   -3.8866 C   0  0  1  0  0  0  0  0  0  0  0  0
    0.3620    2.3839   -2.4495 C   0  0  0  0  0  0  0  0  0  0  0  0
    1.1441    1.5160   -1.5020 C   0  0  0  0  0  0  0  0  0  0  0  0
    2.5863    0.0665   -1.0637 H   0  0  0  0  0  0  0  0  0  0  0  0
    2.3188   -0.7433   -3.4327 H   0  0  0  0  0  0  0  0  0  0  0  0
    0.3052    2.8214   -4.5903 H   0  0  0  0  0  0  0  0  0  0  0  0
   -0.5531    1.8329   -2.7173 H   0  0  0  0  0  0  0  0  0  0  0  0
    0.8253    1.6700   -0.0693 N   0  0  0  0  0  0  0  0  0  0  0  0
   -0.1200    2.4108    0.2091 O   0  0  0  0  0  0  0  0  0  0  0  0
    1.4775    1.0306    0.7519 O   0  0  0  0  0  0  0  0  0  0  0  0
    1.2623    0.5802   -5.3976 N   0  0  0  0  0  0  0  0  0  0  0  0
    1.0492    0.1309   -6.4298 N   0  0  0  0  0  0  0  0  0  0  0  0
    5.8212    2.1134   -3.9397 C   0  0  0  0  0  0  0  0  0  0  0  0
    6.6528    1.0087   -4.1089 C   0  0  0  0  0  0  0  0  0  0  0  0
    6.1452   -0.2881   -3.9979 C   0  0  0  0  0  0  0  0  0  0  0  0
    4.7776   -0.4367   -3.7292 C   0  0  0  0  0  0  0  0  0  0  0  0
    3.9150    0.6481   -3.5475 C   0  0  0  0  0  0  0  0  0  0  0  0
    4.4658    1.9418   -3.6521 C   0  0  0  0  0  0  0  0  0  0  0  0
    6.2130    3.1189   -4.0406 H   0  0  0  0  0  0  0  0  0  0  0  0
    7.7034    1.1625   -4.3373 H   0  0  0  0  0  0  0  0  0  0  0  0
    4.3652   -1.4416   -3.6644 H   0  0  0  0  0  0  0  0  0  0  0  0
   -0.0584    3.2369   -1.8608 H   0  0  0  0  0  0  0  0  0  0  0  0
    3.5600    3.4810   -3.3713 S   0  0  0  0  0  0  0  0  0  0  0  0
    2.2309    3.3338   -4.3130 O   0  0  0  0  0  0  0  0  0  0  0  0
    4.3188    4.5578   -3.9905 O   0  0  0  0  0  0  0  0  0  0  0  0
    3.1537    3.5627   -1.9705 O   0  0  0  0  0  0  0  0  0  0  0  0
    7.0358   -1.4966   -4.1472 C   0  0  0  0  0  0  0  0  0  0  0  0
    7.9121   -1.2743   -4.7617 H   0  0  0  0  0  0  0  0  0  0  0  0
    7.3984   -1.8347   -3.1691 H   0  0  0  0  0  0  0  0  0  0  0  0
    6.5019   -2.3355   -4.6031 H   0  0  0  0  0  0  0  0  0  0  0  0
  1  6  2  0  0  0  0
  1  7  1  0  0  0  0
  2  8  1  6  0  0  0
  2  1  1  0  0  0  0
  3 14  1  6  0  0  0
  3  4  1  0  0  0  0
  3  2  1  0  0  0  0
  4  9  1  6  0  0  0
  4  5  1  0  0  0  0
  5 25  1  0  0  0  0
  5  6  1  0  0  0  0
  6 11  1  0  0  0  0
 10  5  1  0  0  0  0
 11 12  2  0  0  0  0
 11 13  2  0  0  0  0
 15 14  1  0  0  0  0
 16 21  2  0  0  0  0
 17 18  2  0  0  0  0
 17 16  1  0  0  0  0
 18 19  1  0  0  0  0
 19 24  1  0  0  0  0
 19 20  2  0  0  0  0
 20  2  1  0  0  0  0
 21 20  1  0  0  0  0
 21 26  1  0  0  0  0
 22 16  1  0  0  0  0
 23 17  1  0  0  0  0
 26 29  2  0  0  0  0
 27  4  1  0  0  0  0
 27 26  1  0  0  0  0
 28 26  2  0  0  0  0
 30 18  1  0  0  0  0
 30 32  1  0  0  0  0
 31 30  1  0  0  0  0
 33 30  1  0  0  0  0
M  RAD  3   3   2  14   2  15   3
M  END
