Coordinates from ORCA-job p-NO2-Ph-N2-H-OTs-B3LYPG-6-31G_dp-scan-d09-49-n400
 OpenBabel08281820503D

 33 34  0  0  1  0  0  0  0  0999 V2000
    1.9784    0.7914   -1.6726 C   0  0  0  0  0  0  0  0  0  0  0  0
    2.5116    0.3125   -3.0019 C   0  0  1  0  0  0  0  0  0  0  0  0
    1.5056    0.6942   -4.1045 C   0  0  0  0  0  0  0  0  0  0  0  0
    0.4305    1.5443   -3.9599 C   0  0  0  0  0  0  0  0  0  0  0  0
    0.2453    2.2417   -2.7175 C   0  0  0  0  0  0  0  0  0  0  0  0
    0.9157    1.5874   -1.5588 C   0  0  0  0  0  0  0  0  0  0  0  0
    2.4813    0.4384   -0.7804 H   0  0  0  0  0  0  0  0  0  0  0  0
    2.5133   -0.7848   -2.9408 H   0  0  0  0  0  0  0  0  0  0  0  0
   -0.1859    1.7910   -4.8199 H   0  0  0  0  0  0  0  0  0  0  0  0
   -0.7457    2.6444   -2.5255 H   0  0  0  0  0  0  0  0  0  0  0  0
    0.4531    1.9749   -0.2221 N   0  0  0  0  0  0  0  0  0  0  0  0
   -0.4530    2.8084   -0.1752 O   0  0  0  0  0  0  0  0  0  0  0  0
    0.9668    1.4308    0.7505 O   0  0  0  0  0  0  0  0  0  0  0  0
    1.7469    0.1983   -5.3293 N   0  0  0  0  0  0  0  0  0  0  0  0
    2.0062   -0.2623   -6.3244 N   0  0  0  0  0  0  0  0  0  0  0  0
    5.8259    2.1528   -3.8283 C   0  0  0  0  0  0  0  0  0  0  0  0
    6.5966    1.0713   -4.2465 C   0  0  0  0  0  0  0  0  0  0  0  0
    6.0769   -0.2258   -4.2277 C   0  0  0  0  0  0  0  0  0  0  0  0
    4.7570   -0.3843   -3.7937 C   0  0  0  0  0  0  0  0  0  0  0  0
    3.9570    0.6887   -3.3680 C   0  0  0  0  0  0  0  0  0  0  0  0
    4.5118    1.9883   -3.3817 C   0  0  0  0  0  0  0  0  0  0  0  0
    6.2290    3.1595   -3.8374 H   0  0  0  0  0  0  0  0  0  0  0  0
    7.6148    1.2401   -4.5865 H   0  0  0  0  0  0  0  0  0  0  0  0
    4.3346   -1.3882   -3.7781 H   0  0  0  0  0  0  0  0  0  0  0  0
    1.0038    3.1286   -2.9786 H   0  0  0  0  0  0  0  0  0  0  0  0
    3.7002    3.5151   -2.7815 S   0  0  0  0  0  0  0  0  0  0  0  0
    2.4009    3.5592   -3.5825 O   0  0  0  0  0  0  0  0  0  0  0  0
    4.6111    4.6075   -3.1477 O   0  0  0  0  0  0  0  0  0  0  0  0
    3.4625    3.2896   -1.3415 O   0  0  0  0  0  0  0  0  0  0  0  0
    6.9126   -1.4151   -4.6348 C   0  0  0  0  0  0  0  0  0  0  0  0
    7.6063   -1.1566   -5.4405 H   0  0  0  0  0  0  0  0  0  0  0  0
    7.5151   -1.7775   -3.7928 H   0  0  0  0  0  0  0  0  0  0  0  0
    6.2919   -2.2494   -4.9742 H   0  0  0  0  0  0  0  0  0  0  0  0
  1  6  2  0  0  0  0
  1  7  1  0  0  0  0
  2  8  1  1  0  0  0
  2  1  1  0  0  0  0
  3  4  2  0  0  0  0
  3  2  1  0  0  0  0
  4  5  1  0  0  0  0
  5 10  1  0  0  0  0
  5  6  1  0  0  0  0
  6 11  1  0  0  0  0
  9  4  1  0  0  0  0
 11 12  2  0  0  0  0
 11 13  2  0  0  0  0
 14  3  1  0  0  0  0
 15 14  1  0  0  0  0
 16 21  2  0  0  0  0
 17 18  2  0  0  0  0
 17 16  1  0  0  0  0
 18 19  1  0  0  0  0
 19 24  1  0  0  0  0
 19 20  2  0  0  0  0
 20  2  1  0  0  0  0
 21 20  1  0  0  0  0
 21 26  1  0  0  0  0
 22 16  1  0  0  0  0
 23 17  1  0  0  0  0
 25  5  1  0  0  0  0
 26 29  1  0  0  0  0
 27 26  2  0  0  0  0
 28 26  2  0  0  0  0
 30 18  1  0  0  0  0
 30 32  1  0  0  0  0
 31 30  1  0  0  0  0
 33 30  1  0  0  0  0
M  RAD  3  14   2  15   3  29   2
M  END
