Coordinates from ORCA-job p-NO2-Ph-N2-H-OTs-B3LYPG-6-31G_dp-scan-d09-49-n400
 OpenBabel08281820503D

 33 35  0  0  1  0  0  0  0  0999 V2000
    2.0754    0.6356   -1.8366 C   0  0  0  0  0  0  0  0  0  0  0  0
    2.4323    0.3599   -3.2769 C   0  0  1  0  0  0  0  0  0  0  0  0
    1.4620    1.0746   -4.2000 C   0  0  1  0  0  0  0  0  0  0  0  0
    1.0470    2.4747   -3.8813 C   0  0  1  0  0  0  0  0  0  0  0  0
    0.3239    2.3599   -2.4356 C   0  0  0  0  0  0  0  0  0  0  0  0
    1.1361    1.5153   -1.4925 C   0  0  0  0  0  0  0  0  0  0  0  0
    2.6204    0.1050   -1.0646 H   0  0  0  0  0  0  0  0  0  0  0  0
    2.3159   -0.7206   -3.4299 H   0  0  0  0  0  0  0  0  0  0  0  0
    0.3076    2.8526   -4.5852 H   0  0  0  0  0  0  0  0  0  0  0  0
   -0.5356    1.7506   -2.7572 H   0  0  0  0  0  0  0  0  0  0  0  0
    0.8276    1.6625   -0.0560 N   0  0  0  0  0  0  0  0  0  0  0  0
   -0.1390    2.3717    0.2329 O   0  0  0  0  0  0  0  0  0  0  0  0
    1.5187    1.0587    0.7598 O   0  0  0  0  0  0  0  0  0  0  0  0
    1.2686    0.6086   -5.3975 N   0  0  0  0  0  0  0  0  0  0  0  0
    1.0617    0.1629   -6.4325 N   0  0  0  0  0  0  0  0  0  0  0  0
    5.8363    2.1102   -3.9466 C   0  0  0  0  0  0  0  0  0  0  0  0
    6.6602    0.9988   -4.1098 C   0  0  0  0  0  0  0  0  0  0  0  0
    6.1429   -0.2938   -3.9954 C   0  0  0  0  0  0  0  0  0  0  0  0
    4.7738   -0.4313   -3.7281 C   0  0  0  0  0  0  0  0  0  0  0  0
    3.9190    0.6607   -3.5519 C   0  0  0  0  0  0  0  0  0  0  0  0
    4.4792    1.9497   -3.6610 C   0  0  0  0  0  0  0  0  0  0  0  0
    6.2351    3.1126   -4.0509 H   0  0  0  0  0  0  0  0  0  0  0  0
    7.7124    1.1440   -4.3368 H   0  0  0  0  0  0  0  0  0  0  0  0
    4.3542   -1.4329   -3.6597 H   0  0  0  0  0  0  0  0  0  0  0  0
   -0.2021    3.1413   -1.8079 H   0  0  0  0  0  0  0  0  0  0  0  0
    3.5781    3.4942   -3.3961 S   0  0  0  0  0  0  0  0  0  0  0  0
    2.2619    3.3404   -4.3509 O   0  0  0  0  0  0  0  0  0  0  0  0
    4.3510    4.5647   -4.0099 O   0  0  0  0  0  0  0  0  0  0  0  0
    3.1559    3.5812   -2.0000 O   0  0  0  0  0  0  0  0  0  0  0  0
    7.0249   -1.5093   -4.1394 C   0  0  0  0  0  0  0  0  0  0  0  0
    7.9028   -1.2956   -4.7547 H   0  0  0  0  0  0  0  0  0  0  0  0
    7.3849   -1.8461   -3.1599 H   0  0  0  0  0  0  0  0  0  0  0  0
    6.4852   -2.3462   -4.5922 H   0  0  0  0  0  0  0  0  0  0  0  0
  1  6  2  0  0  0  0
  1  7  1  0  0  0  0
  2  8  1  6  0  0  0
  2  1  1  0  0  0  0
  3 14  1  6  0  0  0
  3  4  1  0  0  0  0
  3  2  1  0  0  0  0
  4  9  1  6  0  0  0
  4  5  1  0  0  0  0
  5 25  1  0  0  0  0
  5  6  1  0  0  0  0
  6 11  1  0  0  0  0
 10  5  1  0  0  0  0
 11 12  2  0  0  0  0
 11 13  2  0  0  0  0
 15 14  1  0  0  0  0
 16 21  2  0  0  0  0
 17 18  2  0  0  0  0
 17 16  1  0  0  0  0
 18 19  1  0  0  0  0
 19 24  1  0  0  0  0
 19 20  2  0  0  0  0
 20  2  1  0  0  0  0
 21 20  1  0  0  0  0
 21 26  1  0  0  0  0
 22 16  1  0  0  0  0
 23 17  1  0  0  0  0
 26 29  2  0  0  0  0
 27  4  1  0  0  0  0
 27 26  1  0  0  0  0
 28 26  2  0  0  0  0
 30 18  1  0  0  0  0
 30 32  1  0  0  0  0
 31 30  1  0  0  0  0
 33 30  1  0  0  0  0
M  RAD  3   3   2  14   2  15   3
M  END
