Coordinates from ORCA-job p-NO2-Ph-N2-H-OTs-B3LYPG-6-31G_dp-scan-d09-49-n400
 OpenBabel08281820503D

 33 34  0  0  1  0  0  0  0  0999 V2000
    2.0004    0.8103   -1.6871 C   0  0  0  0  0  0  0  0  0  0  0  0
    2.4827    0.3556   -3.0464 C   0  0  1  0  0  0  0  0  0  0  0  0
    1.4760    0.7730   -4.1329 C   0  0  0  0  0  0  0  0  0  0  0  0
    0.2860    1.5322   -3.8559 C   0  0  0  0  0  0  0  0  0  0  0  0
   -0.0299    1.8951   -2.5851 C   0  0  0  0  0  0  0  0  0  0  0  0
    0.8430    1.4633   -1.5063 C   0  0  0  0  0  0  0  0  0  0  0  0
    2.6152    0.5694   -0.8288 H   0  0  0  0  0  0  0  0  0  0  0  0
    2.4856   -0.7446   -2.9942 H   0  0  0  0  0  0  0  0  0  0  0  0
   -0.3441    1.8216   -4.6911 H   0  0  0  0  0  0  0  0  0  0  0  0
   -0.9207    2.4591   -2.3477 H   0  0  0  0  0  0  0  0  0  0  0  0
    0.4527    1.8222   -0.1292 N   0  0  0  0  0  0  0  0  0  0  0  0
   -0.5535    2.5203   -0.0042 O   0  0  0  0  0  0  0  0  0  0  0  0
    1.1376    1.4006    0.7984 O   0  0  0  0  0  0  0  0  0  0  0  0
    1.7322    0.4151   -5.3652 N   0  0  0  0  0  0  0  0  0  0  0  0
    1.9908    0.0799   -6.4283 N   0  0  0  0  0  0  0  0  0  0  0  0
    5.8636    2.1427   -3.8404 C   0  0  0  0  0  0  0  0  0  0  0  0
    6.6291    1.0401   -4.2091 C   0  0  0  0  0  0  0  0  0  0  0  0
    6.0841   -0.2443   -4.1726 C   0  0  0  0  0  0  0  0  0  0  0  0
    4.7494   -0.3733   -3.7687 C   0  0  0  0  0  0  0  0  0  0  0  0
    3.9452    0.7088   -3.3880 C   0  0  0  0  0  0  0  0  0  0  0  0
    4.5357    1.9935   -3.4300 C   0  0  0  0  0  0  0  0  0  0  0  0
    6.2874    3.1394   -3.8697 H   0  0  0  0  0  0  0  0  0  0  0  0
    7.6567    1.1870   -4.5284 H   0  0  0  0  0  0  0  0  0  0  0  0
    4.3088   -1.3680   -3.7527 H   0  0  0  0  0  0  0  0  0  0  0  0
    1.5964    3.3460   -3.3548 H   0  0  0  0  0  0  0  0  0  0  0  0
    3.7644    3.5428   -2.8998 S   0  0  0  0  0  0  0  0  0  0  0  0
    2.4701    3.6771   -3.8772 O   0  0  0  0  0  0  0  0  0  0  0  0
    4.6575    4.6277   -3.2795 O   0  0  0  0  0  0  0  0  0  0  0  0
    3.3005    3.4042   -1.5197 O   0  0  0  0  0  0  0  0  0  0  0  0
    6.9043   -1.4569   -4.5364 C   0  0  0  0  0  0  0  0  0  0  0  0
    7.6496   -1.2178   -5.3002 H   0  0  0  0  0  0  0  0  0  0  0  0
    7.4447   -1.8376   -3.6611 H   0  0  0  0  0  0  0  0  0  0  0  0
    6.2769   -2.2700   -4.9120 H   0  0  0  0  0  0  0  0  0  0  0  0
  1  6  2  0  0  0  0
  1  7  1  0  0  0  0
  2  8  1  1  0  0  0
  2  1  1  0  0  0  0
  3  4  2  0  0  0  0
  3  2  1  0  0  0  0
  4  5  1  0  0  0  0
  5 10  1  0  0  0  0
  5  6  1  0  0  0  0
  6 11  1  0  0  0  0
  9  4  1  0  0  0  0
 11 12  2  0  0  0  0
 11 13  2  0  0  0  0
 14  3  1  0  0  0  0
 15 14  1  0  0  0  0
 16 21  2  0  0  0  0
 17 18  2  0  0  0  0
 17 16  1  0  0  0  0
 18 19  1  0  0  0  0
 19 24  1  0  0  0  0
 19 20  2  0  0  0  0
 20  2  1  0  0  0  0
 21 20  1  0  0  0  0
 21 26  1  0  0  0  0
 22 16  1  0  0  0  0
 23 17  1  0  0  0  0
 26 29  2  0  0  0  0
 27 25  1  0  0  0  0
 27 26  1  0  0  0  0
 28 26  2  0  0  0  0
 30 18  1  0  0  0  0
 30 32  1  0  0  0  0
 31 30  1  0  0  0  0
 33 30  1  0  0  0  0
M  RAD  3   5   2  14   2  15   3
M  END
