Coordinates from ORCA-job p-NO2-Ph-N2-H-OTs-B3LYPG-6-31G_dp-scan-d09-49-n400
 OpenBabel08281820503D

 33 34  0  0  1  0  0  0  0  0999 V2000
    2.0070    0.8625   -1.6891 C   0  0  0  0  0  0  0  0  0  0  0  0
    2.4874    0.3844   -3.0413 C   0  0  1  0  0  0  0  0  0  0  0  0
    1.4857    0.7944   -4.1361 C   0  0  0  0  0  0  0  0  0  0  0  0
    0.2480    1.4746   -3.8563 C   0  0  0  0  0  0  0  0  0  0  0  0
   -0.0933    1.8100   -2.5867 C   0  0  0  0  0  0  0  0  0  0  0  0
    0.8167    1.4560   -1.5111 C   0  0  0  0  0  0  0  0  0  0  0  0
    2.6431    0.6769   -0.8327 H   0  0  0  0  0  0  0  0  0  0  0  0
    2.4804   -0.7158   -2.9715 H   0  0  0  0  0  0  0  0  0  0  0  0
   -0.3976    1.7252   -4.6921 H   0  0  0  0  0  0  0  0  0  0  0  0
   -1.0167    2.3182   -2.3492 H   0  0  0  0  0  0  0  0  0  0  0  0
    0.4246    1.8258   -0.1363 N   0  0  0  0  0  0  0  0  0  0  0  0
   -0.6128    2.4774   -0.0137 O   0  0  0  0  0  0  0  0  0  0  0  0
    1.1394    1.4593    0.7923 O   0  0  0  0  0  0  0  0  0  0  0  0
    1.7755    0.4799   -5.3719 N   0  0  0  0  0  0  0  0  0  0  0  0
    2.0632    0.1880   -6.4411 N   0  0  0  0  0  0  0  0  0  0  0  0
    5.8867    2.1332   -3.8375 C   0  0  0  0  0  0  0  0  0  0  0  0
    6.6394    1.0235   -4.2094 C   0  0  0  0  0  0  0  0  0  0  0  0
    6.0793   -0.2552   -4.1764 C   0  0  0  0  0  0  0  0  0  0  0  0
    4.7440   -0.3712   -3.7716 C   0  0  0  0  0  0  0  0  0  0  0  0
    3.9519    0.7184   -3.3865 C   0  0  0  0  0  0  0  0  0  0  0  0
    4.5571    1.9951   -3.4272 C   0  0  0  0  0  0  0  0  0  0  0  0
    6.3208    3.1256   -3.8655 H   0  0  0  0  0  0  0  0  0  0  0  0
    7.6685    1.1598   -4.5287 H   0  0  0  0  0  0  0  0  0  0  0  0
    4.2926   -1.3608   -3.7574 H   0  0  0  0  0  0  0  0  0  0  0  0
    1.6756    3.4285   -3.3145 H   0  0  0  0  0  0  0  0  0  0  0  0
    3.8002    3.5449   -2.8900 S   0  0  0  0  0  0  0  0  0  0  0  0
    2.4799    3.6603   -3.8436 O   0  0  0  0  0  0  0  0  0  0  0  0
    4.6814    4.6296   -3.2942 O   0  0  0  0  0  0  0  0  0  0  0  0
    3.3511    3.4191   -1.5041 O   0  0  0  0  0  0  0  0  0  0  0  0
    6.8867   -1.4742   -4.5471 C   0  0  0  0  0  0  0  0  0  0  0  0
    7.5567   -1.2667   -5.3867 H   0  0  0  0  0  0  0  0  0  0  0  0
    7.5118   -1.7970   -3.7056 H   0  0  0  0  0  0  0  0  0  0  0  0
    6.2441   -2.3149   -4.8213 H   0  0  0  0  0  0  0  0  0  0  0  0
  1  6  2  0  0  0  0
  1  7  1  0  0  0  0
  2  8  1  1  0  0  0
  2  1  1  0  0  0  0
  3  4  2  0  0  0  0
  3  2  1  0  0  0  0
  4  5  1  0  0  0  0
  5 10  1  0  0  0  0
  5  6  1  0  0  0  0
  6 11  1  0  0  0  0
  9  4  1  0  0  0  0
 11 12  2  0  0  0  0
 11 13  2  0  0  0  0
 14  3  1  0  0  0  0
 15 14  1  0  0  0  0
 16 21  2  0  0  0  0
 17 18  2  0  0  0  0
 17 16  1  0  0  0  0
 18 19  1  0  0  0  0
 19 24  1  0  0  0  0
 19 20  2  0  0  0  0
 20  2  1  0  0  0  0
 21 20  1  0  0  0  0
 21 26  1  0  0  0  0
 22 16  1  0  0  0  0
 23 17  1  0  0  0  0
 26 29  2  0  0  0  0
 27 25  1  0  0  0  0
 27 26  1  0  0  0  0
 28 26  2  0  0  0  0
 30 18  1  0  0  0  0
 30 32  1  0  0  0  0
 31 30  1  0  0  0  0
 33 30  1  0  0  0  0
M  RAD  3   5   2  14   2  15   3
M  END
