Coordinates from ORCA-job p-NO2-Ph-N2-H-OTs-B3LYPG-6-31G_dp-scan-d09-49-n400
 OpenBabel08281820503D

 33 35  0  0  1  0  0  0  0  0999 V2000
    1.9643    0.5236   -1.8216 C   0  0  0  0  0  0  0  0  0  0  0  0
    2.4234    0.2429   -3.2348 C   0  0  1  0  0  0  0  0  0  0  0  0
    1.5140    0.9528   -4.2140 C   0  0  1  0  0  0  0  0  0  0  0  0
    1.0163    2.3084   -3.8913 C   0  0  1  0  0  0  0  0  0  0  0  0
    0.4900    2.4697   -2.4704 C   0  0  0  0  0  0  0  0  0  0  0  0
    1.0875    1.4817   -1.5199 C   0  0  0  0  0  0  0  0  0  0  0  0
    2.3734   -0.0843   -1.0226 H   0  0  0  0  0  0  0  0  0  0  0  0
    2.3367   -0.8399   -3.3872 H   0  0  0  0  0  0  0  0  0  0  0  0
    0.2795    2.6408   -4.6236 H   0  0  0  0  0  0  0  0  0  0  0  0
   -0.6007    2.4740   -2.4159 H   0  0  0  0  0  0  0  0  0  0  0  0
    0.6890    1.6391   -0.1086 N   0  0  0  0  0  0  0  0  0  0  0  0
   -0.1295    2.5274    0.1279 O   0  0  0  0  0  0  0  0  0  0  0  0
    1.1712    0.8816    0.7310 O   0  0  0  0  0  0  0  0  0  0  0  0
    1.3895    0.4897   -5.4234 N   0  0  0  0  0  0  0  0  0  0  0  0
    1.2489    0.0451   -6.4686 N   0  0  0  0  0  0  0  0  0  0  0  0
    5.7163    2.1270   -4.0162 C   0  0  0  0  0  0  0  0  0  0  0  0
    6.5848    1.0528   -4.2004 C   0  0  0  0  0  0  0  0  0  0  0  0
    6.1432   -0.2599   -4.0216 C   0  0  0  0  0  0  0  0  0  0  0  0
    4.7971   -0.4591   -3.6829 C   0  0  0  0  0  0  0  0  0  0  0  0
    3.8994    0.5929   -3.4887 C   0  0  0  0  0  0  0  0  0  0  0  0
    4.3861    1.9068   -3.6530 C   0  0  0  0  0  0  0  0  0  0  0  0
    6.0620    3.1447   -4.1550 H   0  0  0  0  0  0  0  0  0  0  0  0
    7.6141    1.2444   -4.4889 H   0  0  0  0  0  0  0  0  0  0  0  0
    4.4300   -1.4780   -3.5777 H   0  0  0  0  0  0  0  0  0  0  0  0
    0.8895    3.4710   -2.3037 H   0  0  0  0  0  0  0  0  0  0  0  0
    3.4862    3.4248   -3.2482 S   0  0  0  0  0  0  0  0  0  0  0  0
    2.0361    3.3804   -4.0162 O   0  0  0  0  0  0  0  0  0  0  0  0
    4.1677    4.5372   -3.8942 O   0  0  0  0  0  0  0  0  0  0  0  0
    3.2635    3.4401   -1.8034 O   0  0  0  0  0  0  0  0  0  0  0  0
    7.0776   -1.4338   -4.1783 C   0  0  0  0  0  0  0  0  0  0  0  0
    7.9392   -1.1791   -4.8009 H   0  0  0  0  0  0  0  0  0  0  0  0
    7.4604   -1.7573   -3.2031 H   0  0  0  0  0  0  0  0  0  0  0  0
    6.5715   -2.2928   -4.6287 H   0  0  0  0  0  0  0  0  0  0  0  0
  1  6  2  0  0  0  0
  1  7  1  0  0  0  0
  2  8  1  6  0  0  0
  2  1  1  0  0  0  0
  3 14  1  6  0  0  0
  3  4  1  0  0  0  0
  3  2  1  0  0  0  0
  4  9  1  6  0  0  0
  4  5  1  0  0  0  0
  5 10  1  0  0  0  0
  5 25  1  0  0  0  0
  5  6  1  0  0  0  0
  6 11  1  0  0  0  0
 11 12  2  0  0  0  0
 11 13  2  0  0  0  0
 15 14  1  0  0  0  0
 16 21  2  0  0  0  0
 17 18  2  0  0  0  0
 17 16  1  0  0  0  0
 18 19  1  0  0  0  0
 19 24  1  0  0  0  0
 19 20  2  0  0  0  0
 20  2  1  0  0  0  0
 21 20  1  0  0  0  0
 21 26  1  0  0  0  0
 22 16  1  0  0  0  0
 23 17  1  0  0  0  0
 26 29  2  0  0  0  0
 27  4  1  0  0  0  0
 27 26  1  0  0  0  0
 28 26  2  0  0  0  0
 30 18  1  0  0  0  0
 30 32  1  0  0  0  0
 31 30  1  0  0  0  0
 33 30  1  0  0  0  0
M  RAD  3   3   2  14   2  15   3
M  END
