Coordinates from ORCA-job p-NO2-Ph-N2-H-OTs-B3LYPG-6-31G_dp-scan-d09-49-n400
 OpenBabel08281820503D

 33 35  0  0  1  0  0  0  0  0999 V2000
    2.0955    0.4137   -1.9986 C   0  0  0  0  0  0  0  0  0  0  0  0
    2.3612    0.3996   -3.4902 C   0  0  1  0  0  0  0  0  0  0  0  0
    1.3940    1.3294   -4.1791 C   0  0  1  0  0  0  0  0  0  0  0  0
    1.0521    2.6096   -3.4936 C   0  0  1  0  0  0  0  0  0  0  0  0
    0.4453    2.3281   -2.1131 C   0  0  0  0  0  0  0  0  0  0  0  0
    1.2374    1.2564   -1.4194 C   0  0  0  0  0  0  0  0  0  0  0  0
    2.6338   -0.2949   -1.3790 H   0  0  0  0  0  0  0  0  0  0  0  0
    2.1810   -0.6271   -3.8354 H   0  0  0  0  0  0  0  0  0  0  0  0
    0.3891    3.2280   -4.1024 H   0  0  0  0  0  0  0  0  0  0  0  0
   -0.5965    2.0110   -2.2430 H   0  0  0  0  0  0  0  0  0  0  0  0
    1.0244    1.1373    0.0361 N   0  0  0  0  0  0  0  0  0  0  0  0
    0.1606    1.8691    0.5212 O   0  0  0  0  0  0  0  0  0  0  0  0
    1.6870    0.3166    0.6677 O   0  0  0  0  0  0  0  0  0  0  0  0
    1.0372    1.1138   -5.4092 N   0  0  0  0  0  0  0  0  0  0  0  0
    0.6958    0.8948   -6.4780 N   0  0  0  0  0  0  0  0  0  0  0  0
    5.7938    2.1059   -4.1333 C   0  0  0  0  0  0  0  0  0  0  0  0
    6.6393    1.0070   -4.0253 C   0  0  0  0  0  0  0  0  0  0  0  0
    6.1223   -0.2699   -3.7802 C   0  0  0  0  0  0  0  0  0  0  0  0
    4.7356   -0.4003   -3.6436 C   0  0  0  0  0  0  0  0  0  0  0  0
    3.8556    0.6837   -3.7435 C   0  0  0  0  0  0  0  0  0  0  0  0
    4.4101    1.9521   -3.9977 C   0  0  0  0  0  0  0  0  0  0  0  0
    6.1987    3.0944   -4.3177 H   0  0  0  0  0  0  0  0  0  0  0  0
    7.7110    1.1455   -4.1376 H   0  0  0  0  0  0  0  0  0  0  0  0
    4.3195   -1.3869   -3.4496 H   0  0  0  0  0  0  0  0  0  0  0  0
    0.4183    3.2304   -1.4949 H   0  0  0  0  0  0  0  0  0  0  0  0
    3.4716    3.4634   -4.3080 S   0  0  0  0  0  0  0  0  0  0  0  0
    2.9033    3.4272   -5.6552 O   0  0  0  0  0  0  0  0  0  0  0  0
    4.2926    4.5882   -3.8854 O   0  0  0  0  0  0  0  0  0  0  0  0
    2.2672    3.3925   -3.1950 O   0  0  0  0  0  0  0  0  0  0  0  0
    7.0305   -1.4666   -3.6388 C   0  0  0  0  0  0  0  0  0  0  0  0
    7.9361   -1.3526   -4.2404 H   0  0  0  0  0  0  0  0  0  0  0  0
    7.3448   -1.5955   -2.5963 H   0  0  0  0  0  0  0  0  0  0  0  0
    6.5300   -2.3893   -3.9456 H   0  0  0  0  0  0  0  0  0  0  0  0
  1  6  2  0  0  0  0
  1  7  1  0  0  0  0
  2  8  1  6  0  0  0
  2  1  1  0  0  0  0
  3 14  1  6  0  0  0
  3  4  1  0  0  0  0
  3  2  1  0  0  0  0
  4  9  1  6  0  0  0
  4 29  1  0  0  0  0
  4  5  1  0  0  0  0
  5 25  1  0  0  0  0
  5  6  1  0  0  0  0
  6 11  1  0  0  0  0
 10  5  1  0  0  0  0
 11 12  2  0  0  0  0
 11 13  2  0  0  0  0
 15 14  1  0  0  0  0
 16 17  2  0  0  0  0
 16 21  1  0  0  0  0
 17 18  1  0  0  0  0
 18 19  2  0  0  0  0
 18 30  1  0  0  0  0
 19 24  1  0  0  0  0
 20 19  1  0  0  0  0
 20  2  1  0  0  0  0
 21 20  2  0  0  0  0
 22 16  1  0  0  0  0
 23 17  1  0  0  0  0
 26 21  1  0  0  0  0
 26 28  2  0  0  0  0
 26 29  1  0  0  0  0
 27 26  2  0  0  0  0
 30 32  1  0  0  0  0
 31 30  1  0  0  0  0
 33 30  1  0  0  0  0
M  RAD  3   3   2  14   2  15   3
M  END
