Coordinates from ORCA-job p-NO2-Ph-N2-H-OTs-B3LYPG-6-31G_dp-scan-d09-49-n400
 OpenBabel08281820503D

 33 35  0  0  1  0  0  0  0  0999 V2000
    2.0666    0.4199   -1.9551 C   0  0  0  0  0  0  0  0  0  0  0  0
    2.3762    0.3778   -3.4395 C   0  0  1  0  0  0  0  0  0  0  0  0
    1.4192    1.2841   -4.1686 C   0  0  1  0  0  0  0  0  0  0  0  0
    1.0710    2.5664   -3.5014 C   0  0  1  0  0  0  0  0  0  0  0  0
    0.4305    2.3413   -2.1418 C   0  0  0  0  0  0  0  0  0  0  0  0
    1.1839    1.2643   -1.4137 C   0  0  0  0  0  0  0  0  0  0  0  0
    2.5815   -0.2822   -1.3084 H   0  0  0  0  0  0  0  0  0  0  0  0
    2.2131   -0.6589   -3.7624 H   0  0  0  0  0  0  0  0  0  0  0  0
    0.4733    3.2165   -4.1413 H   0  0  0  0  0  0  0  0  0  0  0  0
   -0.6340    2.1035   -2.2326 H   0  0  0  0  0  0  0  0  0  0  0  0
    0.9197    1.1614    0.0336 N   0  0  0  0  0  0  0  0  0  0  0  0
    0.0541    1.9139    0.4813 O   0  0  0  0  0  0  0  0  0  0  0  0
    1.5447    0.3340    0.6948 O   0  0  0  0  0  0  0  0  0  0  0  0
    1.1217    1.0687   -5.4144 N   0  0  0  0  0  0  0  0  0  0  0  0
    0.8260    0.8456   -6.4958 N   0  0  0  0  0  0  0  0  0  0  0  0
    5.7860    2.0993   -4.1862 C   0  0  0  0  0  0  0  0  0  0  0  0
    6.6388    1.0040   -4.1017 C   0  0  0  0  0  0  0  0  0  0  0  0
    6.1362   -0.2703   -3.8162 C   0  0  0  0  0  0  0  0  0  0  0  0
    4.7561   -0.4030   -3.6249 C   0  0  0  0  0  0  0  0  0  0  0  0
    3.8678    0.6758   -3.7035 C   0  0  0  0  0  0  0  0  0  0  0  0
    4.4095    1.9450   -3.9926 C   0  0  0  0  0  0  0  0  0  0  0  0
    6.1819    3.0874   -4.3914 H   0  0  0  0  0  0  0  0  0  0  0  0
    7.7042    1.1435   -4.2608 H   0  0  0  0  0  0  0  0  0  0  0  0
    4.3512   -1.3892   -3.4070 H   0  0  0  0  0  0  0  0  0  0  0  0
    0.5324    3.2986   -1.6336 H   0  0  0  0  0  0  0  0  0  0  0  0
    3.4573    3.4661   -4.2070 S   0  0  0  0  0  0  0  0  0  0  0  0
    2.7728    3.5049   -5.4949 O   0  0  0  0  0  0  0  0  0  0  0  0
    4.2999    4.5703   -3.7737 O   0  0  0  0  0  0  0  0  0  0  0  0
    2.2929    3.3056   -3.0876 O   0  0  0  0  0  0  0  0  0  0  0  0
    7.0537   -1.4619   -3.6942 C   0  0  0  0  0  0  0  0  0  0  0  0
    7.9264   -1.3606   -4.3451 H   0  0  0  0  0  0  0  0  0  0  0  0
    7.4231   -1.5647   -2.6669 H   0  0  0  0  0  0  0  0  0  0  0  0
    6.5406   -2.3926   -3.9516 H   0  0  0  0  0  0  0  0  0  0  0  0
  1  6  2  0  0  0  0
  1  7  1  0  0  0  0
  2  8  1  6  0  0  0
  2  1  1  0  0  0  0
  3 14  1  6  0  0  0
  3  4  1  0  0  0  0
  3  2  1  0  0  0  0
  4  9  1  6  0  0  0
  4 29  1  0  0  0  0
  4  5  1  0  0  0  0
  5 25  1  0  0  0  0
  5  6  1  0  0  0  0
  6 11  1  0  0  0  0
 10  5  1  0  0  0  0
 11 12  2  0  0  0  0
 11 13  2  0  0  0  0
 15 14  1  0  0  0  0
 16 17  2  0  0  0  0
 16 21  1  0  0  0  0
 17 18  1  0  0  0  0
 18 30  1  0  0  0  0
 18 19  2  0  0  0  0
 19 24  1  0  0  0  0
 20 19  1  0  0  0  0
 20  2  1  0  0  0  0
 21 20  2  0  0  0  0
 22 16  1  0  0  0  0
 23 17  1  0  0  0  0
 26 21  1  0  0  0  0
 26 28  2  0  0  0  0
 26 29  1  0  0  0  0
 27 26  2  0  0  0  0
 30 32  1  0  0  0  0
 31 30  1  0  0  0  0
 33 30  1  0  0  0  0
M  RAD  3   3   2  14   2  15   3
M  END
