Coordinates from ORCA-job p-NO2-Ph-N2-H-OTs-B3LYPG-6-31G_dp-scan-d09-49-n400
 OpenBabel08281820503D

 33 35  0  0  1  0  0  0  0  0999 V2000
    2.0788    0.6426   -1.8348 C   0  0  0  0  0  0  0  0  0  0  0  0
    2.4332    0.3675   -3.2758 C   0  0  1  0  0  0  0  0  0  0  0  0
    1.4620    1.0824   -4.1984 C   0  0  1  0  0  0  0  0  0  0  0  0
    1.0443    2.4802   -3.8788 C   0  0  1  0  0  0  0  0  0  0  0  0
    0.3110    2.3513   -2.4298 C   0  0  0  0  0  0  0  0  0  0  0  0
    1.1324    1.5140   -1.4885 C   0  0  0  0  0  0  0  0  0  0  0  0
    2.6312    0.1179   -1.0641 H   0  0  0  0  0  0  0  0  0  0  0  0
    2.3149   -0.7129   -3.4283 H   0  0  0  0  0  0  0  0  0  0  0  0
    0.3078    2.8623   -4.5829 H   0  0  0  0  0  0  0  0  0  0  0  0
   -0.5308    1.7264   -2.7681 H   0  0  0  0  0  0  0  0  0  0  0  0
    0.8273    1.6592   -0.0509 N   0  0  0  0  0  0  0  0  0  0  0  0
   -0.1479    2.3553    0.2410 O   0  0  0  0  0  0  0  0  0  0  0  0
    1.5294    1.0658    0.7630 O   0  0  0  0  0  0  0  0  0  0  0  0
    1.2735    0.6190   -5.3979 N   0  0  0  0  0  0  0  0  0  0  0  0
    1.0709    0.1751   -6.4344 N   0  0  0  0  0  0  0  0  0  0  0  0
    5.8409    2.1091   -3.9506 C   0  0  0  0  0  0  0  0  0  0  0  0
    6.6622    0.9955   -4.1114 C   0  0  0  0  0  0  0  0  0  0  0  0
    6.1418   -0.2956   -3.9944 C   0  0  0  0  0  0  0  0  0  0  0  0
    4.7725   -0.4294   -3.7266 C   0  0  0  0  0  0  0  0  0  0  0  0
    3.9204    0.6651   -3.5525 C   0  0  0  0  0  0  0  0  0  0  0  0
    4.4835    1.9527   -3.6646 C   0  0  0  0  0  0  0  0  0  0  0  0
    6.2419    3.1105   -4.0570 H   0  0  0  0  0  0  0  0  0  0  0  0
    7.7148    1.1376   -4.3388 H   0  0  0  0  0  0  0  0  0  0  0  0
    4.3505   -1.4299   -3.6561 H   0  0  0  0  0  0  0  0  0  0  0  0
   -0.2450    3.1097   -1.7915 H   0  0  0  0  0  0  0  0  0  0  0  0
    3.5843    3.4993   -3.4057 S   0  0  0  0  0  0  0  0  0  0  0  0
    2.2723    3.3440   -4.3640 O   0  0  0  0  0  0  0  0  0  0  0  0
    4.3624    4.5672   -4.0180 O   0  0  0  0  0  0  0  0  0  0  0  0
    3.1580    3.5887   -2.0109 O   0  0  0  0  0  0  0  0  0  0  0  0
    7.0209   -1.5135   -4.1366 C   0  0  0  0  0  0  0  0  0  0  0  0
    7.8992   -1.3029   -4.7525 H   0  0  0  0  0  0  0  0  0  0  0  0
    7.3806   -1.8495   -3.1567 H   0  0  0  0  0  0  0  0  0  0  0  0
    6.4791   -2.3499   -4.5878 H   0  0  0  0  0  0  0  0  0  0  0  0
  1  6  2  0  0  0  0
  1  7  1  0  0  0  0
  2  8  1  6  0  0  0
  2  1  1  0  0  0  0
  3 14  1  6  0  0  0
  3  4  1  0  0  0  0
  3  2  1  0  0  0  0
  4  9  1  6  0  0  0
  4  5  1  0  0  0  0
  5 25  1  0  0  0  0
  5  6  1  0  0  0  0
  6 11  1  0  0  0  0
 10  5  1  0  0  0  0
 11 12  2  0  0  0  0
 11 13  2  0  0  0  0
 15 14  1  0  0  0  0
 16 21  2  0  0  0  0
 17 18  2  0  0  0  0
 17 16  1  0  0  0  0
 18 19  1  0  0  0  0
 19 24  1  0  0  0  0
 19 20  2  0  0  0  0
 20  2  1  0  0  0  0
 21 20  1  0  0  0  0
 21 26  1  0  0  0  0
 22 16  1  0  0  0  0
 23 17  1  0  0  0  0
 26 29  2  0  0  0  0
 27  4  1  0  0  0  0
 27 26  1  0  0  0  0
 28 26  2  0  0  0  0
 30 18  1  0  0  0  0
 30 32  1  0  0  0  0
 31 30  1  0  0  0  0
 33 30  1  0  0  0  0
M  RAD  3   3   2  14   2  15   3
M  END
