Coordinates from ORCA-job p-NO2-Ph-N2-H-OTs-B3LYPG-6-31G_dp-scan-d09-49-n400
 OpenBabel08281820503D

 33 35  0  0  1  0  0  0  0  0999 V2000
    2.0201    0.5513   -1.8444 C   0  0  0  0  0  0  0  0  0  0  0  0
    2.4238    0.2820   -3.2745 C   0  0  1  0  0  0  0  0  0  0  0  0
    1.4736    0.9964   -4.2130 C   0  0  1  0  0  0  0  0  0  0  0  0
    1.0441    2.3885   -3.8927 C   0  0  1  0  0  0  0  0  0  0  0  0
    0.4511    2.4399   -2.4628 C   0  0  0  0  0  0  0  0  0  0  0  0
    1.1392    1.4959   -1.5191 C   0  0  0  0  0  0  0  0  0  0  0  0
    2.4786   -0.0399   -1.0601 H   0  0  0  0  0  0  0  0  0  0  0  0
    2.3276   -0.7986   -3.4360 H   0  0  0  0  0  0  0  0  0  0  0  0
    0.2851    2.7315   -4.5969 H   0  0  0  0  0  0  0  0  0  0  0  0
   -0.5995    2.1373   -2.5618 H   0  0  0  0  0  0  0  0  0  0  0  0
    0.7810    1.6492   -0.0972 N   0  0  0  0  0  0  0  0  0  0  0  0
   -0.0903    2.4817    0.1586 O   0  0  0  0  0  0  0  0  0  0  0  0
    1.3426    0.9405    0.7351 O   0  0  0  0  0  0  0  0  0  0  0  0
    1.2823    0.5241   -5.4086 N   0  0  0  0  0  0  0  0  0  0  0  0
    1.0793    0.0745   -6.4421 N   0  0  0  0  0  0  0  0  0  0  0  0
    5.7738    2.1222   -3.9558 C   0  0  0  0  0  0  0  0  0  0  0  0
    6.6263    1.0342   -4.1298 C   0  0  0  0  0  0  0  0  0  0  0  0
    6.1488   -0.2722   -4.0022 C   0  0  0  0  0  0  0  0  0  0  0  0
    4.7878   -0.4483   -3.7169 C   0  0  0  0  0  0  0  0  0  0  0  0
    3.9044    0.6187   -3.5314 C   0  0  0  0  0  0  0  0  0  0  0  0
    4.4258    1.9241   -3.6492 C   0  0  0  0  0  0  0  0  0  0  0  0
    6.1443    3.1348   -4.0648 H   0  0  0  0  0  0  0  0  0  0  0  0
    7.6702    1.2093   -4.3734 H   0  0  0  0  0  0  0  0  0  0  0  0
    4.3971   -1.4612   -3.6435 H   0  0  0  0  0  0  0  0  0  0  0  0
    0.4196    3.4393   -2.0160 H   0  0  0  0  0  0  0  0  0  0  0  0
    3.5136    3.4529   -3.3250 S   0  0  0  0  0  0  0  0  0  0  0  0
    2.1425    3.3396   -4.2142 O   0  0  0  0  0  0  0  0  0  0  0  0
    4.2397    4.5450   -3.9555 O   0  0  0  0  0  0  0  0  0  0  0  0
    3.1691    3.5123   -1.9064 O   0  0  0  0  0  0  0  0  0  0  0  0
    7.0633   -1.4625   -4.1528 C   0  0  0  0  0  0  0  0  0  0  0  0
    7.9340   -1.2227   -4.7686 H   0  0  0  0  0  0  0  0  0  0  0  0
    7.4336   -1.7930   -3.1751 H   0  0  0  0  0  0  0  0  0  0  0  0
    6.5456   -2.3121   -4.6077 H   0  0  0  0  0  0  0  0  0  0  0  0
  1  6  2  0  0  0  0
  1  7  1  0  0  0  0
  2  8  1  6  0  0  0
  2  1  1  0  0  0  0
  3 14  1  6  0  0  0
  3  4  1  0  0  0  0
  3  2  1  0  0  0  0
  4  9  1  6  0  0  0
  4  5  1  0  0  0  0
  5 25  1  0  0  0  0
  5  6  1  0  0  0  0
  6 11  1  0  0  0  0
 10  5  1  0  0  0  0
 11 12  2  0  0  0  0
 11 13  2  0  0  0  0
 15 14  1  0  0  0  0
 16 21  2  0  0  0  0
 17 18  2  0  0  0  0
 17 16  1  0  0  0  0
 18 19  1  0  0  0  0
 19 24  1  0  0  0  0
 19 20  2  0  0  0  0
 20  2  1  0  0  0  0
 21 20  1  0  0  0  0
 21 26  1  0  0  0  0
 22 16  1  0  0  0  0
 23 17  1  0  0  0  0
 26 29  2  0  0  0  0
 27  4  1  0  0  0  0
 27 26  1  0  0  0  0
 28 26  2  0  0  0  0
 30 18  1  0  0  0  0
 30 32  1  0  0  0  0
 31 30  1  0  0  0  0
 33 30  1  0  0  0  0
M  RAD  3   3   2  14   2  15   3
M  END
