Coordinates from ORCA-job p-NO2-Ph-N2-H-OTs-B3LYPG-6-31G_dp-scan-d09-49-n400
 OpenBabel08281820503D

 33 35  0  0  1  0  0  0  0  0999 V2000
    2.0501    0.4291   -1.9260 C   0  0  0  0  0  0  0  0  0  0  0  0
    2.3859    0.3673   -3.4056 C   0  0  1  0  0  0  0  0  0  0  0  0
    1.4360    1.2584   -4.1610 C   0  0  1  0  0  0  0  0  0  0  0  0
    1.0823    2.5414   -3.5046 C   0  0  1  0  0  0  0  0  0  0  0  0
    0.4152    2.3457   -2.1602 C   0  0  0  0  0  0  0  0  0  0  0  0
    1.1513    1.2728   -1.4084 C   0  0  0  0  0  0  0  0  0  0  0  0
    2.5535   -0.2662   -1.2628 H   0  0  0  0  0  0  0  0  0  0  0  0
    2.2323   -0.6755   -3.7126 H   0  0  0  0  0  0  0  0  0  0  0  0
    0.5238    3.2091   -4.1600 H   0  0  0  0  0  0  0  0  0  0  0  0
   -0.6550    2.1380   -2.2457 H   0  0  0  0  0  0  0  0  0  0  0  0
    0.8579    1.1799    0.0335 N   0  0  0  0  0  0  0  0  0  0  0  0
   -0.0149    1.9377    0.4577 O   0  0  0  0  0  0  0  0  0  0  0  0
    1.4672    0.3556    0.7130 O   0  0  0  0  0  0  0  0  0  0  0  0
    1.1768    1.0439   -5.4154 N   0  0  0  0  0  0  0  0  0  0  0  0
    0.9116    0.8190   -6.5045 N   0  0  0  0  0  0  0  0  0  0  0  0
    5.7806    2.0943   -4.2195 C   0  0  0  0  0  0  0  0  0  0  0  0
    6.6364    1.0005   -4.1501 C   0  0  0  0  0  0  0  0  0  0  0  0
    6.1429   -0.2714   -3.8394 C   0  0  0  0  0  0  0  0  0  0  0  0
    4.7682   -0.4042   -3.6127 C   0  0  0  0  0  0  0  0  0  0  0  0
    3.8757    0.6722   -3.6777 C   0  0  0  0  0  0  0  0  0  0  0  0
    4.4096    1.9407   -3.9895 C   0  0  0  0  0  0  0  0  0  0  0  0
    6.1712    3.0818   -4.4379 H   0  0  0  0  0  0  0  0  0  0  0  0
    7.6971    1.1396   -4.3388 H   0  0  0  0  0  0  0  0  0  0  0  0
    4.3702   -1.3897   -3.3795 H   0  0  0  0  0  0  0  0  0  0  0  0
    0.5656    3.3253   -1.7117 H   0  0  0  0  0  0  0  0  0  0  0  0
    3.4550    3.4687   -4.1457 S   0  0  0  0  0  0  0  0  0  0  0  0
    2.7193    3.5617   -5.4010 O   0  0  0  0  0  0  0  0  0  0  0  0
    4.3089    4.5562   -3.6929 O   0  0  0  0  0  0  0  0  0  0  0  0
    2.3073    3.2533   -3.0297 O   0  0  0  0  0  0  0  0  0  0  0  0
    7.0652   -1.4604   -3.7308 C   0  0  0  0  0  0  0  0  0  0  0  0
    7.9025   -1.3797   -4.4298 H   0  0  0  0  0  0  0  0  0  0  0  0
    7.4892   -1.5330   -2.7220 H   0  0  0  0  0  0  0  0  0  0  0  0
    6.5393   -2.3975   -3.9328 H   0  0  0  0  0  0  0  0  0  0  0  0
  1  6  2  0  0  0  0
  1  7  1  0  0  0  0
  2  8  1  6  0  0  0
  2  1  1  0  0  0  0
  3 14  1  6  0  0  0
  3  4  1  0  0  0  0
  3  2  1  0  0  0  0
  4  9  1  6  0  0  0
  4 29  1  0  0  0  0
  4  5  1  0  0  0  0
  5 25  1  0  0  0  0
  5  6  1  0  0  0  0
  6 11  1  0  0  0  0
 10  5  1  0  0  0  0
 11 12  2  0  0  0  0
 11 13  2  0  0  0  0
 15 14  1  0  0  0  0
 16 17  2  0  0  0  0
 16 21  1  0  0  0  0
 17 18  1  0  0  0  0
 18 30  1  0  0  0  0
 18 19  2  0  0  0  0
 19 24  1  0  0  0  0
 20 19  1  0  0  0  0
 20  2  1  0  0  0  0
 21 20  2  0  0  0  0
 22 16  1  0  0  0  0
 23 17  1  0  0  0  0
 26 21  1  0  0  0  0
 26 28  2  0  0  0  0
 26 29  1  0  0  0  0
 27 26  2  0  0  0  0
 30 32  1  0  0  0  0
 31 30  1  0  0  0  0
 33 30  1  0  0  0  0
M  RAD  3   3   2  14   2  15   3
M  END
