Coordinates from ORCA-job p-NO2-Ph-N2-H-OTs-B3LYPG-6-31G_dp-scan-d09-49-n400
 OpenBabel08281820503D

 33 35  0  0  1  0  0  0  0  0999 V2000
    1.9945    0.5302   -1.8393 C   0  0  0  0  0  0  0  0  0  0  0  0
    2.4225    0.2612   -3.2632 C   0  0  1  0  0  0  0  0  0  0  0  0
    1.4868    0.9749   -4.2150 C   0  0  1  0  0  0  0  0  0  0  0  0
    1.0332    2.3539   -3.8919 C   0  0  1  0  0  0  0  0  0  0  0  0
    0.4821    2.4608   -2.4636 C   0  0  0  0  0  0  0  0  0  0  0  0
    1.1213    1.4850   -1.5216 C   0  0  0  0  0  0  0  0  0  0  0  0
    2.4251   -0.0758   -1.0504 H   0  0  0  0  0  0  0  0  0  0  0  0
    2.3321   -0.8199   -3.4244 H   0  0  0  0  0  0  0  0  0  0  0  0
    0.2753    2.6879   -4.6020 H   0  0  0  0  0  0  0  0  0  0  0  0
   -0.6026    2.3084   -2.4814 H   0  0  0  0  0  0  0  0  0  0  0  0
    0.7428    1.6365   -0.1048 N   0  0  0  0  0  0  0  0  0  0  0  0
   -0.1000    2.4995    0.1425 O   0  0  0  0  0  0  0  0  0  0  0  0
    1.2579    0.8947    0.7291 O   0  0  0  0  0  0  0  0  0  0  0  0
    1.3161    0.5057   -5.4155 N   0  0  0  0  0  0  0  0  0  0  0  0
    1.1328    0.0581   -6.4532 N   0  0  0  0  0  0  0  0  0  0  0  0
    5.7481    2.1256   -3.9808 C   0  0  0  0  0  0  0  0  0  0  0  0
    6.6095    1.0447   -4.1561 C   0  0  0  0  0  0  0  0  0  0  0  0
    6.1482   -0.2652   -4.0071 C   0  0  0  0  0  0  0  0  0  0  0  0
    4.7926   -0.4528   -3.7027 C   0  0  0  0  0  0  0  0  0  0  0  0
    3.9009    0.6067   -3.5167 C   0  0  0  0  0  0  0  0  0  0  0  0
    4.4066    1.9166   -3.6537 C   0  0  0  0  0  0  0  0  0  0  0  0
    6.1072    3.1409   -4.1023 H   0  0  0  0  0  0  0  0  0  0  0  0
    7.6478    1.2282   -4.4160 H   0  0  0  0  0  0  0  0  0  0  0  0
    4.4131   -1.4688   -3.6161 H   0  0  0  0  0  0  0  0  0  0  0  0
    0.6632    3.4806   -2.1218 H   0  0  0  0  0  0  0  0  0  0  0  0
    3.4966    3.4410   -3.3009 S   0  0  0  0  0  0  0  0  0  0  0  0
    2.0956    3.3540   -4.1471 O   0  0  0  0  0  0  0  0  0  0  0  0
    4.2043    4.5411   -3.9386 O   0  0  0  0  0  0  0  0  0  0  0  0
    3.1997    3.4843   -1.8704 O   0  0  0  0  0  0  0  0  0  0  0  0
    7.0733   -1.4473   -4.1568 C   0  0  0  0  0  0  0  0  0  0  0  0
    7.9396   -1.2015   -4.7765 H   0  0  0  0  0  0  0  0  0  0  0  0
    7.4499   -1.7709   -3.1791 H   0  0  0  0  0  0  0  0  0  0  0  0
    6.5622   -2.3034   -4.6068 H   0  0  0  0  0  0  0  0  0  0  0  0
  1  6  2  0  0  0  0
  1  7  1  0  0  0  0
  2  8  1  6  0  0  0
  2  1  1  0  0  0  0
  3 14  1  6  0  0  0
  3  4  1  0  0  0  0
  3  2  1  0  0  0  0
  4  9  1  6  0  0  0
  4  5  1  0  0  0  0
  5 25  1  0  0  0  0
  5  6  1  0  0  0  0
  6 11  1  0  0  0  0
 10  5  1  0  0  0  0
 11 12  2  0  0  0  0
 11 13  2  0  0  0  0
 15 14  1  0  0  0  0
 16 21  2  0  0  0  0
 17 18  2  0  0  0  0
 17 16  1  0  0  0  0
 18 19  1  0  0  0  0
 19 24  1  0  0  0  0
 19 20  2  0  0  0  0
 20  2  1  0  0  0  0
 21 20  1  0  0  0  0
 21 26  1  0  0  0  0
 22 16  1  0  0  0  0
 23 17  1  0  0  0  0
 26 29  2  0  0  0  0
 27  4  1  0  0  0  0
 27 26  1  0  0  0  0
 28 26  2  0  0  0  0
 30 18  1  0  0  0  0
 30 32  1  0  0  0  0
 31 30  1  0  0  0  0
 33 30  1  0  0  0  0
M  RAD  3   3   2  14   2  15   3
M  END
