Coordinates from ORCA-job p-NO2-Ph-N2-H-OTs-B3LYPG-6-31G_dp-scan-d09-49-n400
 OpenBabel08281820503D

 33 35  0  0  1  0  0  0  0  0999 V2000
    2.0276    0.5595   -1.8453 C   0  0  0  0  0  0  0  0  0  0  0  0
    2.4239    0.2892   -3.2771 C   0  0  1  0  0  0  0  0  0  0  0  0
    1.4704    1.0037   -4.2127 C   0  0  1  0  0  0  0  0  0  0  0  0
    1.0460    2.3989   -3.8927 C   0  0  1  0  0  0  0  0  0  0  0  0
    0.4385    2.4311   -2.4628 C   0  0  0  0  0  0  0  0  0  0  0  0
    1.1433    1.5000   -1.5176 C   0  0  0  0  0  0  0  0  0  0  0  0
    2.4967   -0.0253   -1.0624 H   0  0  0  0  0  0  0  0  0  0  0  0
    2.3256   -0.7913   -3.4382 H   0  0  0  0  0  0  0  0  0  0  0  0
    0.2882    2.7456   -4.5963 H   0  0  0  0  0  0  0  0  0  0  0  0
   -0.5954    2.0817   -2.5882 H   0  0  0  0  0  0  0  0  0  0  0  0
    0.7934    1.6556   -0.0938 N   0  0  0  0  0  0  0  0  0  0  0  0
   -0.0876    2.4770    0.1653 O   0  0  0  0  0  0  0  0  0  0  0  0
    1.3701    0.9578    0.7372 O   0  0  0  0  0  0  0  0  0  0  0  0
    1.2754    0.5312   -5.4075 N   0  0  0  0  0  0  0  0  0  0  0  0
    1.0689    0.0815   -6.4404 N   0  0  0  0  0  0  0  0  0  0  0  0
    5.7812    2.1207   -3.9490 C   0  0  0  0  0  0  0  0  0  0  0  0
    6.6308    1.0305   -4.1229 C   0  0  0  0  0  0  0  0  0  0  0  0
    6.1483   -0.2747   -4.0011 C   0  0  0  0  0  0  0  0  0  0  0  0
    4.7857   -0.4470   -3.7208 C   0  0  0  0  0  0  0  0  0  0  0  0
    3.9053    0.6224   -3.5353 C   0  0  0  0  0  0  0  0  0  0  0  0
    4.4315    1.9263   -3.6479 C   0  0  0  0  0  0  0  0  0  0  0  0
    6.1552    3.1325   -4.0545 H   0  0  0  0  0  0  0  0  0  0  0  0
    7.6761    1.2028   -4.3620 H   0  0  0  0  0  0  0  0  0  0  0  0
    4.3916   -1.4588   -3.6511 H   0  0  0  0  0  0  0  0  0  0  0  0
    0.3391    3.4165   -1.9900 H   0  0  0  0  0  0  0  0  0  0  0  0
    3.5197    3.4565   -3.3306 S   0  0  0  0  0  0  0  0  0  0  0  0
    2.1559    3.3367   -4.2296 O   0  0  0  0  0  0  0  0  0  0  0  0
    4.2506    4.5463   -3.9596 O   0  0  0  0  0  0  0  0  0  0  0  0
    3.1640    3.5203   -1.9150 O   0  0  0  0  0  0  0  0  0  0  0  0
    7.0593   -1.4676   -4.1522 C   0  0  0  0  0  0  0  0  0  0  0  0
    7.9313   -1.2297   -4.7671 H   0  0  0  0  0  0  0  0  0  0  0  0
    7.4280   -1.8001   -3.1745 H   0  0  0  0  0  0  0  0  0  0  0  0
    6.5395   -2.3151   -4.6084 H   0  0  0  0  0  0  0  0  0  0  0  0
  1  6  2  0  0  0  0
  1  7  1  0  0  0  0
  2  8  1  6  0  0  0
  2  1  1  0  0  0  0
  3 14  1  6  0  0  0
  3  4  1  0  0  0  0
  3  2  1  0  0  0  0
  4  9  1  6  0  0  0
  4  5  1  0  0  0  0
  5 25  1  0  0  0  0
  5  6  1  0  0  0  0
  6 11  1  0  0  0  0
 10  5  1  0  0  0  0
 11 12  2  0  0  0  0
 11 13  2  0  0  0  0
 15 14  1  0  0  0  0
 16 21  2  0  0  0  0
 17 18  2  0  0  0  0
 17 16  1  0  0  0  0
 18 19  1  0  0  0  0
 19 24  1  0  0  0  0
 19 20  2  0  0  0  0
 20  2  1  0  0  0  0
 21 20  1  0  0  0  0
 21 26  1  0  0  0  0
 22 16  1  0  0  0  0
 23 17  1  0  0  0  0
 26 29  2  0  0  0  0
 27  4  1  0  0  0  0
 27 26  1  0  0  0  0
 28 26  2  0  0  0  0
 30 18  1  0  0  0  0
 30 32  1  0  0  0  0
 31 30  1  0  0  0  0
 33 30  1  0  0  0  0
M  RAD  3   3   2  14   2  15   3
M  END
