Coordinates from ORCA-job p-NO2-Ph-N2-H-OTs-B3LYPG-6-31G_dp-scan-d09-49-n400
 OpenBabel08281820503D

 33 35  0  0  1  0  0  0  0  0999 V2000
    1.9902    0.5274   -1.8384 C   0  0  0  0  0  0  0  0  0  0  0  0
    2.4222    0.2582   -3.2611 C   0  0  1  0  0  0  0  0  0  0  0  0
    1.4893    0.9720   -4.2156 C   0  0  1  0  0  0  0  0  0  0  0  0
    1.0310    2.3485   -3.8919 C   0  0  1  0  0  0  0  0  0  0  0  0
    0.4850    2.4626   -2.4641 C   0  0  0  0  0  0  0  0  0  0  0  0
    1.1171    1.4830   -1.5221 C   0  0  0  0  0  0  0  0  0  0  0  0
    2.4169   -0.0803   -1.0487 H   0  0  0  0  0  0  0  0  0  0  0  0
    2.3325   -0.8230   -3.4222 H   0  0  0  0  0  0  0  0  0  0  0  0
    0.2743    2.6816   -4.6036 H   0  0  0  0  0  0  0  0  0  0  0  0
   -0.6023    2.3328   -2.4708 H   0  0  0  0  0  0  0  0  0  0  0  0
    0.7353    1.6340   -0.1061 N   0  0  0  0  0  0  0  0  0  0  0  0
   -0.0993    2.5049    0.1409 O   0  0  0  0  0  0  0  0  0  0  0  0
    1.2490    0.8925    0.7289 O   0  0  0  0  0  0  0  0  0  0  0  0
    1.3230    0.5037   -5.4171 N   0  0  0  0  0  0  0  0  0  0  0  0
    1.1439    0.0567   -6.4558 N   0  0  0  0  0  0  0  0  0  0  0  0
    5.7439    2.1259   -3.9849 C   0  0  0  0  0  0  0  0  0  0  0  0
    6.6065    1.0461   -4.1606 C   0  0  0  0  0  0  0  0  0  0  0  0
    6.1478   -0.2643   -4.0081 C   0  0  0  0  0  0  0  0  0  0  0  0
    4.7932   -0.4536   -3.7004 C   0  0  0  0  0  0  0  0  0  0  0  0
    3.9003    0.6048   -3.5141 C   0  0  0  0  0  0  0  0  0  0  0  0
    4.4035    1.9153   -3.6541 C   0  0  0  0  0  0  0  0  0  0  0  0
    6.1012    3.1417   -4.1084 H   0  0  0  0  0  0  0  0  0  0  0  0
    7.6439    1.2308   -4.4234 H   0  0  0  0  0  0  0  0  0  0  0  0
    4.4153   -1.4701   -3.6116 H   0  0  0  0  0  0  0  0  0  0  0  0
    0.6971    3.4820   -2.1407 H   0  0  0  0  0  0  0  0  0  0  0  0
    3.4942    3.4388   -3.2957 S   0  0  0  0  0  0  0  0  0  0  0  0
    2.0880    3.3570   -4.1340 O   0  0  0  0  0  0  0  0  0  0  0  0
    4.1989    4.5405   -3.9340 O   0  0  0  0  0  0  0  0  0  0  0  0
    3.2054    3.4786   -1.8634 O   0  0  0  0  0  0  0  0  0  0  0  0
    7.0745   -1.4451   -4.1577 C   0  0  0  0  0  0  0  0  0  0  0  0
    7.9401   -1.1984   -4.7781 H   0  0  0  0  0  0  0  0  0  0  0  0
    7.4521   -1.7678   -3.1802 H   0  0  0  0  0  0  0  0  0  0  0  0
    6.5643   -2.3022   -4.6070 H   0  0  0  0  0  0  0  0  0  0  0  0
  1  6  2  0  0  0  0
  1  7  1  0  0  0  0
  2  8  1  6  0  0  0
  2  1  1  0  0  0  0
  3 14  1  6  0  0  0
  3  4  1  0  0  0  0
  3  2  1  0  0  0  0
  4  9  1  6  0  0  0
  4  5  1  0  0  0  0
  5 25  1  0  0  0  0
  5  6  1  0  0  0  0
  6 11  1  0  0  0  0
 10  5  1  0  0  0  0
 11 12  2  0  0  0  0
 11 13  2  0  0  0  0
 15 14  1  0  0  0  0
 16 21  2  0  0  0  0
 17 18  2  0  0  0  0
 17 16  1  0  0  0  0
 18 19  1  0  0  0  0
 19 24  1  0  0  0  0
 19 20  2  0  0  0  0
 20  2  1  0  0  0  0
 21 20  1  0  0  0  0
 21 26  1  0  0  0  0
 22 16  1  0  0  0  0
 23 17  1  0  0  0  0
 26 29  2  0  0  0  0
 27  4  1  0  0  0  0
 27 26  1  0  0  0  0
 28 26  2  0  0  0  0
 30 18  1  0  0  0  0
 30 32  1  0  0  0  0
 31 30  1  0  0  0  0
 33 30  1  0  0  0  0
M  RAD  3   3   2  14   2  15   3
M  END
