Coordinates from ORCA-job p-NO2-Ph-N2-H-OTs-B3LYPG-6-31G_dp-scan-d09-49-n400
 OpenBabel08281820503D

 33 35  0  0  1  0  0  0  0  0999 V2000
    2.0730    0.4172   -1.9660 C   0  0  0  0  0  0  0  0  0  0  0  0
    2.3726    0.3822   -3.4521 C   0  0  1  0  0  0  0  0  0  0  0  0
    1.4129    1.2943   -4.1714 C   0  0  1  0  0  0  0  0  0  0  0  0
    1.0666    2.5762   -3.4999 C   0  0  1  0  0  0  0  0  0  0  0  0
    0.4358    2.3392   -2.1346 C   0  0  0  0  0  0  0  0  0  0  0  0
    1.1966    1.2616   -1.4154 C   0  0  0  0  0  0  0  0  0  0  0  0
    2.5927   -0.2874   -1.3258 H   0  0  0  0  0  0  0  0  0  0  0  0
    2.2057   -0.6520   -3.7808 H   0  0  0  0  0  0  0  0  0  0  0  0
    0.4536    3.2193   -4.1329 H   0  0  0  0  0  0  0  0  0  0  0  0
   -0.6255    2.0869   -2.2302 H   0  0  0  0  0  0  0  0  0  0  0  0
    0.9440    1.1547    0.0339 N   0  0  0  0  0  0  0  0  0  0  0  0
    0.0802    1.9040    0.4905 O   0  0  0  0  0  0  0  0  0  0  0  0
    1.5761    0.3271    0.6879 O   0  0  0  0  0  0  0  0  0  0  0  0
    1.1009    1.0787   -5.4135 N   0  0  0  0  0  0  0  0  0  0  0  0
    0.7938    0.8565   -6.4919 N   0  0  0  0  0  0  0  0  0  0  0  0
    5.7879    2.1011   -4.1739 C   0  0  0  0  0  0  0  0  0  0  0  0
    6.6392    1.0051   -4.0835 C   0  0  0  0  0  0  0  0  0  0  0  0
    6.1333   -0.2698   -3.8075 C   0  0  0  0  0  0  0  0  0  0  0  0
    4.7514   -0.4024   -3.6294 C   0  0  0  0  0  0  0  0  0  0  0  0
    3.8649    0.6774   -3.7132 C   0  0  0  0  0  0  0  0  0  0  0  0
    4.4095    1.9467   -3.9941 C   0  0  0  0  0  0  0  0  0  0  0  0
    6.1858    3.0894   -4.3743 H   0  0  0  0  0  0  0  0  0  0  0  0
    7.7064    1.1447   -4.2315 H   0  0  0  0  0  0  0  0  0  0  0  0
    4.3439   -1.3888   -3.4171 H   0  0  0  0  0  0  0  0  0  0  0  0
    0.5143    3.2863   -1.6022 H   0  0  0  0  0  0  0  0  0  0  0  0
    3.4592    3.4652   -4.2310 S   0  0  0  0  0  0  0  0  0  0  0  0
    2.7975    3.4842   -5.5319 O   0  0  0  0  0  0  0  0  0  0  0  0
    4.2972    4.5751   -3.8034 O   0  0  0  0  0  0  0  0  0  0  0  0
    2.2874    3.3257   -3.1114 O   0  0  0  0  0  0  0  0  0  0  0  0
    7.0487   -1.4626   -3.6802 C   0  0  0  0  0  0  0  0  0  0  0  0
    7.9339   -1.3544   -4.3126 H   0  0  0  0  0  0  0  0  0  0  0  0
    7.3976   -1.5766   -2.6469 H   0  0  0  0  0  0  0  0  0  0  0  0
    6.5410   -2.3904   -3.9578 H   0  0  0  0  0  0  0  0  0  0  0  0
  1  6  2  0  0  0  0
  1  7  1  0  0  0  0
  2  8  1  6  0  0  0
  2  1  1  0  0  0  0
  3 14  1  6  0  0  0
  3  4  1  0  0  0  0
  3  2  1  0  0  0  0
  4  9  1  6  0  0  0
  4 29  1  0  0  0  0
  4  5  1  0  0  0  0
  5 25  1  0  0  0  0
  5  6  1  0  0  0  0
  6 11  1  0  0  0  0
 10  5  1  0  0  0  0
 11 12  2  0  0  0  0
 11 13  2  0  0  0  0
 15 14  1  0  0  0  0
 16 17  2  0  0  0  0
 16 21  1  0  0  0  0
 17 18  1  0  0  0  0
 18 30  1  0  0  0  0
 18 19  2  0  0  0  0
 19 24  1  0  0  0  0
 20 19  1  0  0  0  0
 20  2  1  0  0  0  0
 21 20  2  0  0  0  0
 22 16  1  0  0  0  0
 23 17  1  0  0  0  0
 26 21  1  0  0  0  0
 26 28  2  0  0  0  0
 26 29  1  0  0  0  0
 27 26  2  0  0  0  0
 30 32  1  0  0  0  0
 31 30  1  0  0  0  0
 33 30  1  0  0  0  0
M  RAD  3   3   2  14   2  15   3
M  END
