Coordinates from ORCA-job p-NO2-Ph-N2-H-OTs-B3LYPG-6-31G_dp-scan-d09-49-n400
 OpenBabel08281820503D

 33 35  0  0  1  0  0  0  0  0999 V2000
    2.0350    0.5700   -1.8441 C   0  0  0  0  0  0  0  0  0  0  0  0
    2.4255    0.2974   -3.2769 C   0  0  1  0  0  0  0  0  0  0  0  0
    1.4691    1.0115   -4.2106 C   0  0  1  0  0  0  0  0  0  0  0  0
    1.0484    2.4092   -3.8924 C   0  0  1  0  0  0  0  0  0  0  0  0
    0.4251    2.4237   -2.4619 C   0  0  0  0  0  0  0  0  0  0  0  0
    1.1446    1.5044   -1.5155 C   0  0  0  0  0  0  0  0  0  0  0  0
    2.5131   -0.0081   -1.0618 H   0  0  0  0  0  0  0  0  0  0  0  0
    2.3250   -0.7833   -3.4360 H   0  0  0  0  0  0  0  0  0  0  0  0
    0.2927    2.7588   -4.5965 H   0  0  0  0  0  0  0  0  0  0  0  0
   -0.5909    2.0328   -2.6136 H   0  0  0  0  0  0  0  0  0  0  0  0
    0.7991    1.6597   -0.0903 N   0  0  0  0  0  0  0  0  0  0  0  0
   -0.0925    2.4689    0.1714 O   0  0  0  0  0  0  0  0  0  0  0  0
    1.3900    0.9731    0.7400 O   0  0  0  0  0  0  0  0  0  0  0  0
    1.2717    0.5382   -5.4046 N   0  0  0  0  0  0  0  0  0  0  0  0
    1.0628    0.0878   -6.4368 N   0  0  0  0  0  0  0  0  0  0  0  0
    5.7890    2.1193   -3.9457 C   0  0  0  0  0  0  0  0  0  0  0  0
    6.6354    1.0266   -4.1197 C   0  0  0  0  0  0  0  0  0  0  0  0
    6.1483   -0.2772   -4.0014 C   0  0  0  0  0  0  0  0  0  0  0  0
    4.7848   -0.4455   -3.7235 C   0  0  0  0  0  0  0  0  0  0  0  0
    3.9075    0.6265   -3.5378 C   0  0  0  0  0  0  0  0  0  0  0  0
    4.4382    1.9285   -3.6475 C   0  0  0  0  0  0  0  0  0  0  0  0
    6.1662    3.1301   -4.0493 H   0  0  0  0  0  0  0  0  0  0  0  0
    7.6818    1.1958   -4.3566 H   0  0  0  0  0  0  0  0  0  0  0  0
    4.3874   -1.4562   -3.6555 H   0  0  0  0  0  0  0  0  0  0  0  0
    0.2617    3.3912   -1.9640 H   0  0  0  0  0  0  0  0  0  0  0  0
    3.5266    3.4596   -3.3361 S   0  0  0  0  0  0  0  0  0  0  0  0
    2.1705    3.3347   -4.2455 O   0  0  0  0  0  0  0  0  0  0  0  0
    4.2628    4.5481   -3.9613 O   0  0  0  0  0  0  0  0  0  0  0  0
    3.1589    3.5249   -1.9237 O   0  0  0  0  0  0  0  0  0  0  0  0
    7.0557   -1.4728   -4.1532 C   0  0  0  0  0  0  0  0  0  0  0  0
    7.9285   -1.2372   -4.7677 H   0  0  0  0  0  0  0  0  0  0  0  0
    7.4231   -1.8074   -3.1758 H   0  0  0  0  0  0  0  0  0  0  0  0
    6.5334   -2.3184   -4.6103 H   0  0  0  0  0  0  0  0  0  0  0  0
  1  6  2  0  0  0  0
  1  7  1  0  0  0  0
  2  8  1  6  0  0  0
  2  1  1  0  0  0  0
  3 14  1  6  0  0  0
  3  4  1  0  0  0  0
  3  2  1  0  0  0  0
  4  9  1  6  0  0  0
  4  5  1  0  0  0  0
  5 25  1  0  0  0  0
  5  6  1  0  0  0  0
  6 11  1  0  0  0  0
 10  5  1  0  0  0  0
 11 12  2  0  0  0  0
 11 13  2  0  0  0  0
 15 14  1  0  0  0  0
 16 21  2  0  0  0  0
 17 18  2  0  0  0  0
 17 16  1  0  0  0  0
 18 19  1  0  0  0  0
 19 24  1  0  0  0  0
 19 20  2  0  0  0  0
 20  2  1  0  0  0  0
 21 20  1  0  0  0  0
 21 26  1  0  0  0  0
 22 16  1  0  0  0  0
 23 17  1  0  0  0  0
 26 29  2  0  0  0  0
 27  4  1  0  0  0  0
 27 26  1  0  0  0  0
 28 26  2  0  0  0  0
 30 18  1  0  0  0  0
 30 32  1  0  0  0  0
 31 30  1  0  0  0  0
 33 30  1  0  0  0  0
M  RAD  3   3   2  14   2  15   3
M  END
