Coordinates from ORCA-job p-NO2-Ph-N2-H-OTs-B3LYPG-6-31G_dp-scan-d09-49-n400
 OpenBabel08281820503D

 33 35  0  0  1  0  0  0  0  0999 V2000
    1.9908    0.5278   -1.8383 C   0  0  0  0  0  0  0  0  0  0  0  0
    2.4225    0.2591   -3.2612 C   0  0  1  0  0  0  0  0  0  0  0  0
    1.4891    0.9729   -4.2152 C   0  0  1  0  0  0  0  0  0  0  0  0
    1.0315    2.3498   -3.8915 C   0  0  1  0  0  0  0  0  0  0  0  0
    0.4843    2.4624   -2.4633 C   0  0  0  0  0  0  0  0  0  0  0  0
    1.1175    1.4830   -1.5216 C   0  0  0  0  0  0  0  0  0  0  0  0
    2.4180   -0.0798   -1.0487 H   0  0  0  0  0  0  0  0  0  0  0  0
    2.3328   -0.8221   -3.4223 H   0  0  0  0  0  0  0  0  0  0  0  0
    0.2744    2.6829   -4.6029 H   0  0  0  0  0  0  0  0  0  0  0  0
   -0.6026    2.3289   -2.4720 H   0  0  0  0  0  0  0  0  0  0  0  0
    0.7360    1.6336   -0.1055 N   0  0  0  0  0  0  0  0  0  0  0  0
   -0.1019    2.5014    0.1414 O   0  0  0  0  0  0  0  0  0  0  0  0
    1.2481    0.8902    0.7288 O   0  0  0  0  0  0  0  0  0  0  0  0
    1.3222    0.5044   -5.4165 N   0  0  0  0  0  0  0  0  0  0  0  0
    1.1425    0.0574   -6.4551 N   0  0  0  0  0  0  0  0  0  0  0  0
    5.7449    2.1259   -3.9852 C   0  0  0  0  0  0  0  0  0  0  0  0
    6.6072    1.0457   -4.1605 C   0  0  0  0  0  0  0  0  0  0  0  0
    6.1479   -0.2645   -4.0079 C   0  0  0  0  0  0  0  0  0  0  0  0
    4.7932   -0.4532   -3.7004 C   0  0  0  0  0  0  0  0  0  0  0  0
    3.9006    0.6055   -3.5144 C   0  0  0  0  0  0  0  0  0  0  0  0
    4.4044    1.9159   -3.6546 C   0  0  0  0  0  0  0  0  0  0  0  0
    6.1026    3.1415   -4.1089 H   0  0  0  0  0  0  0  0  0  0  0  0
    7.6447    1.2300   -4.4231 H   0  0  0  0  0  0  0  0  0  0  0  0
    4.4150   -1.4695   -3.6116 H   0  0  0  0  0  0  0  0  0  0  0  0
    0.6911    3.4818   -2.1360 H   0  0  0  0  0  0  0  0  0  0  0  0
    3.4954    3.4399   -3.2978 S   0  0  0  0  0  0  0  0  0  0  0  0
    2.0895    3.3570   -4.1364 O   0  0  0  0  0  0  0  0  0  0  0  0
    4.2005    4.5406   -3.9374 O   0  0  0  0  0  0  0  0  0  0  0  0
    3.2064    3.4817   -1.8656 O   0  0  0  0  0  0  0  0  0  0  0  0
    7.0742   -1.4457   -4.1572 C   0  0  0  0  0  0  0  0  0  0  0  0
    7.9398   -1.1994   -4.7777 H   0  0  0  0  0  0  0  0  0  0  0  0
    7.4518   -1.7681   -3.1796 H   0  0  0  0  0  0  0  0  0  0  0  0
    6.5637   -2.3027   -4.6061 H   0  0  0  0  0  0  0  0  0  0  0  0
  1  6  2  0  0  0  0
  1  7  1  0  0  0  0
  2  8  1  6  0  0  0
  2  1  1  0  0  0  0
  3 14  1  6  0  0  0
  3  4  1  0  0  0  0
  3  2  1  0  0  0  0
  4  9  1  6  0  0  0
  4  5  1  0  0  0  0
  5 25  1  0  0  0  0
  5  6  1  0  0  0  0
  6 11  1  0  0  0  0
 10  5  1  0  0  0  0
 11 12  2  0  0  0  0
 11 13  2  0  0  0  0
 15 14  1  0  0  0  0
 16 21  2  0  0  0  0
 17 18  2  0  0  0  0
 17 16  1  0  0  0  0
 18 19  1  0  0  0  0
 19 24  1  0  0  0  0
 19 20  2  0  0  0  0
 20  2  1  0  0  0  0
 21 20  1  0  0  0  0
 21 26  1  0  0  0  0
 22 16  1  0  0  0  0
 23 17  1  0  0  0  0
 26 29  2  0  0  0  0
 27  4  1  0  0  0  0
 27 26  1  0  0  0  0
 28 26  2  0  0  0  0
 30 18  1  0  0  0  0
 30 32  1  0  0  0  0
 31 30  1  0  0  0  0
 33 30  1  0  0  0  0
M  RAD  3   3   2  14   2  15   3
M  END
