Coordinates from ORCA-job p-NO2-Ph-N2-H-OTs-B3LYPG-6-31G_dp-scan-d09-49-n400
 OpenBabel08281820503D

 33 35  0  0  1  0  0  0  0  0999 V2000
    2.0043    0.5376   -1.8413 C   0  0  0  0  0  0  0  0  0  0  0  0
    2.4232    0.2684   -3.2675 C   0  0  1  0  0  0  0  0  0  0  0  0
    1.4817    0.9822   -4.2142 C   0  0  1  0  0  0  0  0  0  0  0  0
    1.0381    2.3667   -3.8926 C   0  0  1  0  0  0  0  0  0  0  0  0
    0.4717    2.4537   -2.4638 C   0  0  0  0  0  0  0  0  0  0  0  0
    1.1288    1.4892   -1.5210 C   0  0  0  0  0  0  0  0  0  0  0  0
    2.4447   -0.0633   -1.0539 H   0  0  0  0  0  0  0  0  0  0  0  0
    2.3308   -0.8125   -3.4288 H   0  0  0  0  0  0  0  0  0  0  0  0
    0.2791    2.7035   -4.6001 H   0  0  0  0  0  0  0  0  0  0  0  0
   -0.6035    2.2443   -2.5115 H   0  0  0  0  0  0  0  0  0  0  0  0
    0.7575    1.6417   -0.1025 N   0  0  0  0  0  0  0  0  0  0  0  0
   -0.0954    2.4943    0.1474 O   0  0  0  0  0  0  0  0  0  0  0  0
    1.2887    0.9112    0.7312 O   0  0  0  0  0  0  0  0  0  0  0  0
    1.3022    0.5113   -5.4124 N   0  0  0  0  0  0  0  0  0  0  0  0
    1.1106    0.0625   -6.4483 N   0  0  0  0  0  0  0  0  0  0  0  0
    5.7580    2.1244   -3.9703 C   0  0  0  0  0  0  0  0  0  0  0  0
    6.6161    1.0410   -4.1455 C   0  0  0  0  0  0  0  0  0  0  0  0
    6.1487   -0.2677   -4.0053 C   0  0  0  0  0  0  0  0  0  0  0  0
    4.7911   -0.4512   -3.7083 C   0  0  0  0  0  0  0  0  0  0  0  0
    3.9024    0.6110   -3.5222 C   0  0  0  0  0  0  0  0  0  0  0  0
    4.4140    1.9193   -3.6513 C   0  0  0  0  0  0  0  0  0  0  0  0
    6.1214    3.1389   -4.0866 H   0  0  0  0  0  0  0  0  0  0  0  0
    7.6566    1.2216   -4.3990 H   0  0  0  0  0  0  0  0  0  0  0  0
    4.4074   -1.4661   -3.6272 H   0  0  0  0  0  0  0  0  0  0  0  0
    0.5730    3.4707   -2.0790 H   0  0  0  0  0  0  0  0  0  0  0  0
    3.5024    3.4452   -3.3100 S   0  0  0  0  0  0  0  0  0  0  0  0
    2.1139    3.3477   -4.1749 O   0  0  0  0  0  0  0  0  0  0  0  0
    4.2175    4.5425   -3.9442 O   0  0  0  0  0  0  0  0  0  0  0  0
    3.1853    3.4946   -1.8843 O   0  0  0  0  0  0  0  0  0  0  0  0
    7.0698   -1.4529   -4.1560 C   0  0  0  0  0  0  0  0  0  0  0  0
    7.9380   -1.2089   -4.7737 H   0  0  0  0  0  0  0  0  0  0  0  0
    7.4437   -1.7799   -3.1784 H   0  0  0  0  0  0  0  0  0  0  0  0
    6.5563   -2.3061   -4.6087 H   0  0  0  0  0  0  0  0  0  0  0  0
  1  6  2  0  0  0  0
  1  7  1  0  0  0  0
  2  8  1  6  0  0  0
  2  1  1  0  0  0  0
  3 14  1  6  0  0  0
  3  4  1  0  0  0  0
  3  2  1  0  0  0  0
  4  9  1  6  0  0  0
  4  5  1  0  0  0  0
  5 25  1  0  0  0  0
  5  6  1  0  0  0  0
  6 11  1  0  0  0  0
 10  5  1  0  0  0  0
 11 12  2  0  0  0  0
 11 13  2  0  0  0  0
 15 14  1  0  0  0  0
 16 21  2  0  0  0  0
 17 18  2  0  0  0  0
 17 16  1  0  0  0  0
 18 19  1  0  0  0  0
 19 24  1  0  0  0  0
 19 20  2  0  0  0  0
 20  2  1  0  0  0  0
 21 20  1  0  0  0  0
 21 26  1  0  0  0  0
 22 16  1  0  0  0  0
 23 17  1  0  0  0  0
 26 29  2  0  0  0  0
 27  4  1  0  0  0  0
 27 26  1  0  0  0  0
 28 26  2  0  0  0  0
 30 18  1  0  0  0  0
 30 32  1  0  0  0  0
 31 30  1  0  0  0  0
 33 30  1  0  0  0  0
M  RAD  3   3   2  14   2  15   3
M  END
