Coordinates from ORCA-job p-NO2-Ph-N2-H-OTs-B3LYPG-6-31G_dp-scan-d09-49-n400
 OpenBabel08281820503D

 33 35  0  0  1  0  0  0  0  0999 V2000
    2.0869    0.4137   -1.9873 C   0  0  0  0  0  0  0  0  0  0  0  0
    2.3653    0.3926   -3.4769 C   0  0  1  0  0  0  0  0  0  0  0  0
    1.4006    1.3160   -4.1765 C   0  0  1  0  0  0  0  0  0  0  0  0
    1.0578    2.5970   -3.4961 C   0  0  1  0  0  0  0  0  0  0  0  0
    0.4438    2.3332   -2.1209 C   0  0  0  0  0  0  0  0  0  0  0  0
    1.2227    1.2576   -1.4184 C   0  0  0  0  0  0  0  0  0  0  0  0
    2.6174   -0.2944   -1.3603 H   0  0  0  0  0  0  0  0  0  0  0  0
    2.1903   -0.6368   -3.8167 H   0  0  0  0  0  0  0  0  0  0  0  0
    0.4132    3.2249   -4.1141 H   0  0  0  0  0  0  0  0  0  0  0  0
   -0.6072    2.0438   -2.2342 H   0  0  0  0  0  0  0  0  0  0  0  0
    0.9944    1.1426    0.0348 N   0  0  0  0  0  0  0  0  0  0  0  0
    0.1316    1.8821    0.5094 O   0  0  0  0  0  0  0  0  0  0  0  0
    1.6441    0.3177    0.6745 O   0  0  0  0  0  0  0  0  0  0  0  0
    1.0596    1.1003   -5.4110 N   0  0  0  0  0  0  0  0  0  0  0  0
    0.7301    0.8801   -6.4832 N   0  0  0  0  0  0  0  0  0  0  0  0
    5.7916    2.1044   -4.1485 C   0  0  0  0  0  0  0  0  0  0  0  0
    6.6396    1.0068   -4.0466 C   0  0  0  0  0  0  0  0  0  0  0  0
    6.1267   -0.2695   -3.7899 C   0  0  0  0  0  0  0  0  0  0  0  0
    4.7416   -0.4010   -3.6384 C   0  0  0  0  0  0  0  0  0  0  0  0
    3.8590    0.6812   -3.7327 C   0  0  0  0  0  0  0  0  0  0  0  0
    4.4097    1.9501   -3.9967 C   0  0  0  0  0  0  0  0  0  0  0  0
    6.1938    3.0929   -4.3388 H   0  0  0  0  0  0  0  0  0  0  0  0
    7.7097    1.1459   -4.1719 H   0  0  0  0  0  0  0  0  0  0  0  0
    4.3287   -1.3876   -3.4376 H   0  0  0  0  0  0  0  0  0  0  0  0
    0.4620    3.2548   -1.5357 H   0  0  0  0  0  0  0  0  0  0  0  0
    3.4657    3.4638   -4.2796 S   0  0  0  0  0  0  0  0  0  0  0  0
    2.8585    3.4462   -5.6087 O   0  0  0  0  0  0  0  0  0  0  0  0
    4.2935    4.5838   -3.8580 O   0  0  0  0  0  0  0  0  0  0  0  0
    2.2752    3.3676   -3.1628 O   0  0  0  0  0  0  0  0  0  0  0  0
    7.0376   -1.4647   -3.6530 C   0  0  0  0  0  0  0  0  0  0  0  0
    7.9391   -1.3501   -4.2607 H   0  0  0  0  0  0  0  0  0  0  0  0
    7.3590   -1.5916   -2.6124 H   0  0  0  0  0  0  0  0  0  0  0  0
    6.5366   -2.3885   -3.9552 H   0  0  0  0  0  0  0  0  0  0  0  0
  1  6  2  0  0  0  0
  1  7  1  0  0  0  0
  2  8  1  6  0  0  0
  2  1  1  0  0  0  0
  3 14  1  6  0  0  0
  3  4  1  0  0  0  0
  3  2  1  0  0  0  0
  4  9  1  6  0  0  0
  4 29  1  0  0  0  0
  4  5  1  0  0  0  0
  5 25  1  0  0  0  0
  5  6  1  0  0  0  0
  6 11  1  0  0  0  0
 10  5  1  0  0  0  0
 11 12  2  0  0  0  0
 11 13  2  0  0  0  0
 15 14  1  0  0  0  0
 16 17  2  0  0  0  0
 16 21  1  0  0  0  0
 17 18  1  0  0  0  0
 18 30  1  0  0  0  0
 18 19  2  0  0  0  0
 19 24  1  0  0  0  0
 20 19  1  0  0  0  0
 20  2  1  0  0  0  0
 21 20  2  0  0  0  0
 22 16  1  0  0  0  0
 23 17  1  0  0  0  0
 26 21  1  0  0  0  0
 26 28  2  0  0  0  0
 26 29  1  0  0  0  0
 27 26  2  0  0  0  0
 30 32  1  0  0  0  0
 31 30  1  0  0  0  0
 33 30  1  0  0  0  0
M  RAD  3   3   2  14   2  15   3
M  END
