Coordinates from ORCA-job p-NO2-Ph-N2-H-OTs-B3LYPG-6-31G_dp-scan-d09-49-n400
 OpenBabel08281820503D

 33 34  0  0  1  0  0  0  0  0999 V2000
    1.9752    0.7788   -1.6741 C   0  0  0  0  0  0  0  0  0  0  0  0
    2.5062    0.2986   -3.0039 C   0  0  1  0  0  0  0  0  0  0  0  0
    1.4963    0.6738   -4.1063 C   0  0  0  0  0  0  0  0  0  0  0  0
    0.4258    1.5363   -3.9585 C   0  0  0  0  0  0  0  0  0  0  0  0
    0.2593    2.2388   -2.7257 C   0  0  0  0  0  0  0  0  0  0  0  0
    0.9242    1.5913   -1.5634 C   0  0  0  0  0  0  0  0  0  0  0  0
    2.4737    0.4220   -0.7811 H   0  0  0  0  0  0  0  0  0  0  0  0
    2.5161   -0.7984   -2.9408 H   0  0  0  0  0  0  0  0  0  0  0  0
   -0.1917    1.7848   -4.8171 H   0  0  0  0  0  0  0  0  0  0  0  0
   -0.7098    2.6898   -2.5335 H   0  0  0  0  0  0  0  0  0  0  0  0
    0.4667    1.9916   -0.2281 N   0  0  0  0  0  0  0  0  0  0  0  0
   -0.4263    2.8389   -0.1844 O   0  0  0  0  0  0  0  0  0  0  0  0
    0.9777    1.4490    0.7466 O   0  0  0  0  0  0  0  0  0  0  0  0
    1.7257    0.1665   -5.3249 N   0  0  0  0  0  0  0  0  0  0  0  0
    1.9731   -0.3049   -6.3195 N   0  0  0  0  0  0  0  0  0  0  0  0
    5.8173    2.1562   -3.8149 C   0  0  0  0  0  0  0  0  0  0  0  0
    6.5919    1.0795   -4.2385 C   0  0  0  0  0  0  0  0  0  0  0  0
    6.0754   -0.2187   -4.2289 C   0  0  0  0  0  0  0  0  0  0  0  0
    4.7550   -0.3829   -3.7982 C   0  0  0  0  0  0  0  0  0  0  0  0
    3.9502    0.6844   -3.3682 C   0  0  0  0  0  0  0  0  0  0  0  0
    4.5024    1.9856   -3.3729 C   0  0  0  0  0  0  0  0  0  0  0  0
    6.2187    3.1635   -3.8170 H   0  0  0  0  0  0  0  0  0  0  0  0
    7.6103    1.2535   -4.5752 H   0  0  0  0  0  0  0  0  0  0  0  0
    4.3354   -1.3879   -3.7898 H   0  0  0  0  0  0  0  0  0  0  0  0
    1.0683    3.1092   -3.0141 H   0  0  0  0  0  0  0  0  0  0  0  0
    3.6918    3.5100   -2.7649 S   0  0  0  0  0  0  0  0  0  0  0  0
    2.3990    3.5752   -3.5860 O   0  0  0  0  0  0  0  0  0  0  0  0
    4.6063    4.6034   -3.1148 O   0  0  0  0  0  0  0  0  0  0  0  0
    3.4292    3.2764   -1.3321 O   0  0  0  0  0  0  0  0  0  0  0  0
    6.9143   -1.4037   -4.6417 C   0  0  0  0  0  0  0  0  0  0  0  0
    7.6157   -1.1365   -5.4376 H   0  0  0  0  0  0  0  0  0  0  0  0
    7.5083   -1.7762   -3.7980 H   0  0  0  0  0  0  0  0  0  0  0  0
    6.2963   -2.2336   -4.9966 H   0  0  0  0  0  0  0  0  0  0  0  0
  1  6  2  0  0  0  0
  1  7  1  0  0  0  0
  2  8  1  1  0  0  0
  2  1  1  0  0  0  0
  3  4  2  0  0  0  0
  3  2  1  0  0  0  0
  4  5  1  0  0  0  0
  5 10  1  0  0  0  0
  5  6  1  0  0  0  0
  6 11  1  0  0  0  0
  9  4  1  0  0  0  0
 11 12  2  0  0  0  0
 11 13  2  0  0  0  0
 14  3  1  0  0  0  0
 15 14  1  0  0  0  0
 16 21  2  0  0  0  0
 17 18  2  0  0  0  0
 17 16  1  0  0  0  0
 18 19  1  0  0  0  0
 19 24  1  0  0  0  0
 19 20  2  0  0  0  0
 20  2  1  0  0  0  0
 21 20  1  0  0  0  0
 21 26  1  0  0  0  0
 22 16  1  0  0  0  0
 23 17  1  0  0  0  0
 25  5  1  0  0  0  0
 26 29  1  0  0  0  0
 27 26  2  0  0  0  0
 28 26  2  0  0  0  0
 30 18  1  0  0  0  0
 30 32  1  0  0  0  0
 31 30  1  0  0  0  0
 33 30  1  0  0  0  0
M  RAD  3  14   2  15   3  29   2
M  END
