Coordinates from ORCA-job p-NO2-Ph-N2-H-OTs-B3LYPG-6-31G_dp-scan-d09-49-n400
 OpenBabel08281820503D

 33 35  0  0  1  0  0  0  0  0999 V2000
    2.0927    0.4135   -1.9951 C   0  0  0  0  0  0  0  0  0  0  0  0
    2.3625    0.3972   -3.4860 C   0  0  1  0  0  0  0  0  0  0  0  0
    1.3961    1.3251   -4.1783 C   0  0  1  0  0  0  0  0  0  0  0  0
    1.0540    2.6055   -3.4944 C   0  0  1  0  0  0  0  0  0  0  0  0
    0.4451    2.3299   -2.1156 C   0  0  0  0  0  0  0  0  0  0  0  0
    1.2328    1.2566   -1.4192 C   0  0  0  0  0  0  0  0  0  0  0  0
    2.6283   -0.2951   -1.3732 H   0  0  0  0  0  0  0  0  0  0  0  0
    2.1840   -0.6303   -3.8296 H   0  0  0  0  0  0  0  0  0  0  0  0
    0.3969    3.2271   -4.1062 H   0  0  0  0  0  0  0  0  0  0  0  0
   -0.6000    2.0222   -2.2396 H   0  0  0  0  0  0  0  0  0  0  0  0
    1.0147    1.1388    0.0356 N   0  0  0  0  0  0  0  0  0  0  0  0
    0.1513    1.8732    0.5173 O   0  0  0  0  0  0  0  0  0  0  0  0
    1.6729    0.3165    0.6698 O   0  0  0  0  0  0  0  0  0  0  0  0
    1.0442    1.1094   -5.4098 N   0  0  0  0  0  0  0  0  0  0  0  0
    0.7066    0.8900   -6.4796 N   0  0  0  0  0  0  0  0  0  0  0  0
    5.7931    2.1055   -4.1382 C   0  0  0  0  0  0  0  0  0  0  0  0
    6.6395    1.0070   -4.0321 C   0  0  0  0  0  0  0  0  0  0  0  0
    6.1237   -0.2697   -3.7832 C   0  0  0  0  0  0  0  0  0  0  0  0
    4.7376   -0.4005   -3.6420 C   0  0  0  0  0  0  0  0  0  0  0  0
    3.8567    0.6829   -3.7401 C   0  0  0  0  0  0  0  0  0  0  0  0
    4.4099    1.9515   -3.9974 C   0  0  0  0  0  0  0  0  0  0  0  0
    6.1971    3.0940   -4.3246 H   0  0  0  0  0  0  0  0  0  0  0  0
    7.7107    1.1457   -4.1486 H   0  0  0  0  0  0  0  0  0  0  0  0
    4.3225   -1.3872   -3.4457 H   0  0  0  0  0  0  0  0  0  0  0  0
    0.4335    3.2389   -1.5082 H   0  0  0  0  0  0  0  0  0  0  0  0
    3.4695    3.4635   -4.2988 S   0  0  0  0  0  0  0  0  0  0  0  0
    2.8880    3.4330   -5.6400 O   0  0  0  0  0  0  0  0  0  0  0  0
    4.2928    4.5869   -3.8770 O   0  0  0  0  0  0  0  0  0  0  0  0
    2.2699    3.3844   -3.1844 O   0  0  0  0  0  0  0  0  0  0  0  0
    7.0328   -1.4659   -3.6432 C   0  0  0  0  0  0  0  0  0  0  0  0
    7.9374   -1.3515   -4.2463 H   0  0  0  0  0  0  0  0  0  0  0  0
    7.3490   -1.5944   -2.6012 H   0  0  0  0  0  0  0  0  0  0  0  0
    6.5324   -2.3889   -3.9490 H   0  0  0  0  0  0  0  0  0  0  0  0
  1  6  2  0  0  0  0
  1  7  1  0  0  0  0
  2  8  1  6  0  0  0
  2  1  1  0  0  0  0
  3 14  1  6  0  0  0
  3  4  1  0  0  0  0
  3  2  1  0  0  0  0
  4  9  1  6  0  0  0
  4 29  1  0  0  0  0
  4  5  1  0  0  0  0
  5 25  1  0  0  0  0
  5  6  1  0  0  0  0
  6 11  1  0  0  0  0
 10  5  1  0  0  0  0
 11 12  2  0  0  0  0
 11 13  2  0  0  0  0
 15 14  1  0  0  0  0
 16 17  2  0  0  0  0
 16 21  1  0  0  0  0
 17 18  1  0  0  0  0
 18 30  1  0  0  0  0
 18 19  2  0  0  0  0
 19 24  1  0  0  0  0
 20 19  1  0  0  0  0
 20  2  1  0  0  0  0
 21 20  2  0  0  0  0
 22 16  1  0  0  0  0
 23 17  1  0  0  0  0
 26 21  1  0  0  0  0
 26 28  2  0  0  0  0
 26 29  1  0  0  0  0
 27 26  2  0  0  0  0
 30 32  1  0  0  0  0
 31 30  1  0  0  0  0
 33 30  1  0  0  0  0
M  RAD  3   3   2  14   2  15   3
M  END
