Coordinates from ORCA-job p-NO2-Ph-N2-H-OTs-B3LYPG-6-31G_dp-scan-d09-49-n400
 OpenBabel08281820503D

 33 35  0  0  1  0  0  0  0  0999 V2000
    2.0836    0.6533   -1.8320 C   0  0  0  0  0  0  0  0  0  0  0  0
    2.4346    0.3778   -3.2735 C   0  0  1  0  0  0  0  0  0  0  0  0
    1.4623    1.0926   -4.1959 C   0  0  1  0  0  0  0  0  0  0  0  0
    1.0393    2.4861   -3.8754 C   0  0  1  0  0  0  0  0  0  0  0  0
    0.2923    2.3388   -2.4218 C   0  0  0  0  0  0  0  0  0  0  0  0
    1.1270    1.5126   -1.4830 C   0  0  0  0  0  0  0  0  0  0  0  0
    2.6458    0.1369   -1.0628 H   0  0  0  0  0  0  0  0  0  0  0  0
    2.3137   -0.7027   -3.4245 H   0  0  0  0  0  0  0  0  0  0  0  0
    0.3077    2.8746   -4.5805 H   0  0  0  0  0  0  0  0  0  0  0  0
   -0.5260    1.6948   -2.7810 H   0  0  0  0  0  0  0  0  0  0  0  0
    0.8253    1.6542   -0.0440 N   0  0  0  0  0  0  0  0  0  0  0  0
   -0.1600    2.3346    0.2517 O   0  0  0  0  0  0  0  0  0  0  0  0
    1.5440    1.0785    0.7679 O   0  0  0  0  0  0  0  0  0  0  0  0
    1.2827    0.6335   -5.3990 N   0  0  0  0  0  0  0  0  0  0  0  0
    1.0878    0.1927   -6.4380 N   0  0  0  0  0  0  0  0  0  0  0  0
    5.8467    2.1075   -3.9568 C   0  0  0  0  0  0  0  0  0  0  0  0
    6.6646    0.9908   -4.1147 C   0  0  0  0  0  0  0  0  0  0  0  0
    6.1403   -0.2984   -3.9938 C   0  0  0  0  0  0  0  0  0  0  0  0
    4.7708   -0.4271   -3.7246 C   0  0  0  0  0  0  0  0  0  0  0  0
    3.9223    0.6707   -3.5533 C   0  0  0  0  0  0  0  0  0  0  0  0
    4.4890    1.9562   -3.6699 C   0  0  0  0  0  0  0  0  0  0  0  0
    6.2505    3.1074   -4.0662 H   0  0  0  0  0  0  0  0  0  0  0  0
    7.7175    1.1290   -4.3430 H   0  0  0  0  0  0  0  0  0  0  0  0
    4.3458   -1.4261   -3.6508 H   0  0  0  0  0  0  0  0  0  0  0  0
   -0.3005    3.0669   -1.7708 H   0  0  0  0  0  0  0  0  0  0  0  0
    3.5920    3.5055   -3.4177 S   0  0  0  0  0  0  0  0  0  0  0  0
    2.2870    3.3498   -4.3821 O   0  0  0  0  0  0  0  0  0  0  0  0
    4.3783    4.5709   -4.0247 O   0  0  0  0  0  0  0  0  0  0  0  0
    3.1586    3.5949   -2.0249 O   0  0  0  0  0  0  0  0  0  0  0  0
    7.0156   -1.5194   -4.1334 C   0  0  0  0  0  0  0  0  0  0  0  0
    7.8941   -1.3129   -4.7503 H   0  0  0  0  0  0  0  0  0  0  0  0
    7.3748   -1.8542   -3.1529 H   0  0  0  0  0  0  0  0  0  0  0  0
    6.4711   -2.3551   -4.5825 H   0  0  0  0  0  0  0  0  0  0  0  0
  1  6  2  0  0  0  0
  1  7  1  0  0  0  0
  2  8  1  6  0  0  0
  2  1  1  0  0  0  0
  3 14  1  6  0  0  0
  3  4  1  0  0  0  0
  3  2  1  0  0  0  0
  4  9  1  6  0  0  0
  4  5  1  0  0  0  0
  5 25  1  0  0  0  0
  5  6  1  0  0  0  0
  6 11  1  0  0  0  0
 10  5  1  0  0  0  0
 11 12  2  0  0  0  0
 11 13  2  0  0  0  0
 15 14  1  0  0  0  0
 16 21  2  0  0  0  0
 17 18  2  0  0  0  0
 17 16  1  0  0  0  0
 18 19  1  0  0  0  0
 19 24  1  0  0  0  0
 19 20  2  0  0  0  0
 20  2  1  0  0  0  0
 21 20  1  0  0  0  0
 21 26  1  0  0  0  0
 22 16  1  0  0  0  0
 23 17  1  0  0  0  0
 26 29  2  0  0  0  0
 27  4  1  0  0  0  0
 27 26  1  0  0  0  0
 28 26  2  0  0  0  0
 30 18  1  0  0  0  0
 30 32  1  0  0  0  0
 31 30  1  0  0  0  0
 33 30  1  0  0  0  0
M  RAD  3   3   2  14   2  15   3
M  END
