Coordinates from ORCA-job p-NO2-Ph-N2-H-OTs-B3LYPG-6-31G_dp-scan-d09-49-n400
 OpenBabel08281820503D

 33 34  0  0  1  0  0  0  0  0999 V2000
    1.9917    0.8296   -1.6720 C   0  0  0  0  0  0  0  0  0  0  0  0
    2.5232    0.3385   -2.9967 C   0  0  1  0  0  0  0  0  0  0  0  0
    1.5353    0.7427   -4.1016 C   0  0  0  0  0  0  0  0  0  0  0  0
    0.4691    1.5891   -3.9723 C   0  0  0  0  0  0  0  0  0  0  0  0
    0.1964    2.2404   -2.6966 C   0  0  0  0  0  0  0  0  0  0  0  0
    0.9010    1.5854   -1.5522 C   0  0  0  0  0  0  0  0  0  0  0  0
    2.5123    0.5003   -0.7808 H   0  0  0  0  0  0  0  0  0  0  0  0
    2.4974   -0.7591   -2.9351 H   0  0  0  0  0  0  0  0  0  0  0  0
   -0.1221    1.8565   -4.8438 H   0  0  0  0  0  0  0  0  0  0  0  0
   -0.8555    2.4630   -2.5183 H   0  0  0  0  0  0  0  0  0  0  0  0
    0.4367    1.9531   -0.2115 N   0  0  0  0  0  0  0  0  0  0  0  0
   -0.4939    2.7602   -0.1589 O   0  0  0  0  0  0  0  0  0  0  0  0
    0.9778    1.4317    0.7585 O   0  0  0  0  0  0  0  0  0  0  0  0
    1.8114    0.2821   -5.3420 N   0  0  0  0  0  0  0  0  0  0  0  0
    2.0999   -0.1483   -6.3390 N   0  0  0  0  0  0  0  0  0  0  0  0
    5.8359    2.1396   -3.8669 C   0  0  0  0  0  0  0  0  0  0  0  0
    6.6011    1.0492   -4.2710 C   0  0  0  0  0  0  0  0  0  0  0  0
    6.0799   -0.2482   -4.2261 C   0  0  0  0  0  0  0  0  0  0  0  0
    4.7624   -0.3985   -3.7828 C   0  0  0  0  0  0  0  0  0  0  0  0
    3.9708    0.6862   -3.3708 C   0  0  0  0  0  0  0  0  0  0  0  0
    4.5245    1.9839   -3.4086 C   0  0  0  0  0  0  0  0  0  0  0  0
    6.2384    3.1465   -3.8935 H   0  0  0  0  0  0  0  0  0  0  0  0
    7.6179    1.2090   -4.6201 H   0  0  0  0  0  0  0  0  0  0  0  0
    4.3379   -1.4011   -3.7469 H   0  0  0  0  0  0  0  0  0  0  0  0
    0.7730    3.2068   -2.8754 H   0  0  0  0  0  0  0  0  0  0  0  0
    3.7051    3.5052   -2.8067 S   0  0  0  0  0  0  0  0  0  0  0  0
    2.3959    3.5207   -3.5680 O   0  0  0  0  0  0  0  0  0  0  0  0
    4.6112    4.6016   -3.1817 O   0  0  0  0  0  0  0  0  0  0  0  0
    3.5137    3.2669   -1.3584 O   0  0  0  0  0  0  0  0  0  0  0  0
    6.9136   -1.4440   -4.6181 C   0  0  0  0  0  0  0  0  0  0  0  0
    7.5617   -1.2159   -5.4698 H   0  0  0  0  0  0  0  0  0  0  0  0
    7.5646   -1.7561   -3.7922 H   0  0  0  0  0  0  0  0  0  0  0  0
    6.2901   -2.3023   -4.8850 H   0  0  0  0  0  0  0  0  0  0  0  0
  1  6  2  0  0  0  0
  1  7  1  0  0  0  0
  2  8  1  1  0  0  0
  2  1  1  0  0  0  0
  3  4  2  0  0  0  0
  3  2  1  0  0  0  0
  4  5  1  0  0  0  0
  5 10  1  0  0  0  0
  5  6  1  0  0  0  0
  6 11  1  0  0  0  0
  9  4  1  0  0  0  0
 11 12  2  0  0  0  0
 11 13  2  0  0  0  0
 14  3  1  0  0  0  0
 15 14  1  0  0  0  0
 16 21  2  0  0  0  0
 17 18  2  0  0  0  0
 17 16  1  0  0  0  0
 18 19  1  0  0  0  0
 19 24  1  0  0  0  0
 19 20  2  0  0  0  0
 20  2  1  0  0  0  0
 21 20  1  0  0  0  0
 21 26  1  0  0  0  0
 22 16  1  0  0  0  0
 23 17  1  0  0  0  0
 25  5  1  0  0  0  0
 26 29  1  0  0  0  0
 27 26  2  0  0  0  0
 28 26  2  0  0  0  0
 30 18  1  0  0  0  0
 30 32  1  0  0  0  0
 31 30  1  0  0  0  0
 33 30  1  0  0  0  0
M  RAD  3  14   2  15   3  29   2
M  END
