Coordinates from ORCA-job p-NO2-Ph-N2-H-OTs-B3LYPG-6-31G_dp-scan-d09-49-n400
 OpenBabel08281820503D

 33 35  0  0  1  0  0  0  0  0999 V2000
    2.0270    0.4426   -1.8861 C   0  0  0  0  0  0  0  0  0  0  0  0
    2.3996    0.3542   -3.3582 C   0  0  1  0  0  0  0  0  0  0  0  0
    1.4599    1.2235   -4.1500 C   0  0  1  0  0  0  0  0  0  0  0  0
    1.0981    2.5072   -3.5078 C   0  0  1  0  0  0  0  0  0  0  0  0
    0.3936    2.3513   -2.1846 C   0  0  0  0  0  0  0  0  0  0  0  0
    1.1081    1.2861   -1.4003 C   0  0  0  0  0  0  0  0  0  0  0  0
    2.5136   -0.2436   -1.2011 H   0  0  0  0  0  0  0  0  0  0  0  0
    2.2593   -0.6968   -3.6424 H   0  0  0  0  0  0  0  0  0  0  0  0
    0.5918    3.1964   -4.1808 H   0  0  0  0  0  0  0  0  0  0  0  0
   -0.6806    2.1733   -2.2737 H   0  0  0  0  0  0  0  0  0  0  0  0
    0.7750    1.2046    0.0330 N   0  0  0  0  0  0  0  0  0  0  0  0
   -0.1011    1.9741    0.4280 O   0  0  0  0  0  0  0  0  0  0  0  0
    1.3721    0.3933    0.7388 O   0  0  0  0  0  0  0  0  0  0  0  0
    1.2501    1.0092   -5.4135 N   0  0  0  0  0  0  0  0  0  0  0  0
    1.0285    0.7833   -6.5123 N   0  0  0  0  0  0  0  0  0  0  0  0
    5.7704    2.0872   -4.2694 C   0  0  0  0  0  0  0  0  0  0  0  0
    6.6302    0.9954   -4.2199 C   0  0  0  0  0  0  0  0  0  0  0  0
    6.1507   -0.2721   -3.8717 C   0  0  0  0  0  0  0  0  0  0  0  0
    4.7849   -0.4042   -3.5954 C   0  0  0  0  0  0  0  0  0  0  0  0
    3.8871    0.6687   -3.6423 C   0  0  0  0  0  0  0  0  0  0  0  0
    4.4092    1.9355   -3.9874 C   0  0  0  0  0  0  0  0  0  0  0  0
    6.1533    3.0732   -4.5082 H   0  0  0  0  0  0  0  0  0  0  0  0
    7.6826    1.1332   -4.4502 H   0  0  0  0  0  0  0  0  0  0  0  0
    4.3977   -1.3883   -3.3396 H   0  0  0  0  0  0  0  0  0  0  0  0
    0.5923    3.3549   -1.8113 H   0  0  0  0  0  0  0  0  0  0  0  0
    3.4552    3.4722   -4.0643 S   0  0  0  0  0  0  0  0  0  0  0  0
    2.6645    3.6460   -5.2763 O   0  0  0  0  0  0  0  0  0  0  0  0
    4.3228    4.5326   -3.5747 O   0  0  0  0  0  0  0  0  0  0  0  0
    2.3267    3.1795   -2.9596 O   0  0  0  0  0  0  0  0  0  0  0  0
    7.0786   -1.4580   -3.7794 C   0  0  0  0  0  0  0  0  0  0  0  0
    7.8815   -1.3939   -4.5196 H   0  0  0  0  0  0  0  0  0  0  0  0
    7.5508   -1.5063   -2.7906 H   0  0  0  0  0  0  0  0  0  0  0  0
    6.5448   -2.3997   -3.9333 H   0  0  0  0  0  0  0  0  0  0  0  0
  1  6  2  0  0  0  0
  1  7  1  0  0  0  0
  2  8  1  6  0  0  0
  2  1  1  0  0  0  0
  3 14  1  6  0  0  0
  3  4  1  0  0  0  0
  3  2  1  0  0  0  0
  4  9  1  6  0  0  0
  4 29  1  0  0  0  0
  4  5  1  0  0  0  0
  5 25  1  0  0  0  0
  5  6  1  0  0  0  0
  6 11  1  0  0  0  0
 10  5  1  0  0  0  0
 11 12  2  0  0  0  0
 11 13  2  0  0  0  0
 15 14  1  0  0  0  0
 16 17  2  0  0  0  0
 16 21  1  0  0  0  0
 17 18  1  0  0  0  0
 18 30  1  0  0  0  0
 18 19  2  0  0  0  0
 19 24  1  0  0  0  0
 20 19  1  0  0  0  0
 20  2  1  0  0  0  0
 21 20  2  0  0  0  0
 22 16  1  0  0  0  0
 23 17  1  0  0  0  0
 26 21  1  0  0  0  0
 26 28  2  0  0  0  0
 26 29  1  0  0  0  0
 27 26  2  0  0  0  0
 30 32  1  0  0  0  0
 31 30  1  0  0  0  0
 33 30  1  0  0  0  0
M  RAD  3   3   2  14   2  15   3
M  END
