Coordinates from ORCA-job p-NO2-Ph-N2-H-OTs-B3LYPG-6-31G_dp-scan-d09-49-n400
 OpenBabel08281820503D

 33 35  0  0  1  0  0  0  0  0999 V2000
    2.0484    0.4295   -1.9242 C   0  0  0  0  0  0  0  0  0  0  0  0
    2.3866    0.3667   -3.4033 C   0  0  1  0  0  0  0  0  0  0  0  0
    1.4372    1.2567   -4.1607 C   0  0  1  0  0  0  0  0  0  0  0  0
    1.0827    2.5396   -3.5046 C   0  0  1  0  0  0  0  0  0  0  0  0
    0.4132    2.3456   -2.1608 C   0  0  0  0  0  0  0  0  0  0  0  0
    1.1481    1.2727   -1.4080 C   0  0  0  0  0  0  0  0  0  0  0  0
    2.5508   -0.2654   -1.2600 H   0  0  0  0  0  0  0  0  0  0  0  0
    2.2339   -0.6766   -3.7091 H   0  0  0  0  0  0  0  0  0  0  0  0
    0.5274    3.2090   -4.1609 H   0  0  0  0  0  0  0  0  0  0  0  0
   -0.6574    2.1401   -2.2464 H   0  0  0  0  0  0  0  0  0  0  0  0
    0.8522    1.1794    0.0333 N   0  0  0  0  0  0  0  0  0  0  0  0
   -0.0183    1.9400    0.4570 O   0  0  0  0  0  0  0  0  0  0  0  0
    1.4634    0.3580    0.7146 O   0  0  0  0  0  0  0  0  0  0  0  0
    1.1814    1.0430   -5.4159 N   0  0  0  0  0  0  0  0  0  0  0  0
    0.9190    0.8185   -6.5057 N   0  0  0  0  0  0  0  0  0  0  0  0
    5.7802    2.0939   -4.2226 C   0  0  0  0  0  0  0  0  0  0  0  0
    6.6362    1.0002   -4.1540 C   0  0  0  0  0  0  0  0  0  0  0  0
    6.1433   -0.2714   -3.8408 C   0  0  0  0  0  0  0  0  0  0  0  0
    4.7690   -0.4040   -3.6115 C   0  0  0  0  0  0  0  0  0  0  0  0
    3.8763    0.6722   -3.6757 C   0  0  0  0  0  0  0  0  0  0  0  0
    4.4097    1.9405   -3.9895 C   0  0  0  0  0  0  0  0  0  0  0  0
    6.1705    3.0812   -4.4424 H   0  0  0  0  0  0  0  0  0  0  0  0
    7.6965    1.1391   -4.3451 H   0  0  0  0  0  0  0  0  0  0  0  0
    4.3716   -1.3894   -3.3768 H   0  0  0  0  0  0  0  0  0  0  0  0
    0.5668    3.3265   -1.7158 H   0  0  0  0  0  0  0  0  0  0  0  0
    3.4551    3.4689   -4.1419 S   0  0  0  0  0  0  0  0  0  0  0  0
    2.7165    3.5656   -5.3956 O   0  0  0  0  0  0  0  0  0  0  0  0
    4.3099    4.5552   -3.6877 O   0  0  0  0  0  0  0  0  0  0  0  0
    2.3086    3.2488   -3.0257 O   0  0  0  0  0  0  0  0  0  0  0  0
    7.0659   -1.4603   -3.7329 C   0  0  0  0  0  0  0  0  0  0  0  0
    7.9007   -1.3812   -4.4351 H   0  0  0  0  0  0  0  0  0  0  0  0
    7.4936   -1.5306   -2.7255 H   0  0  0  0  0  0  0  0  0  0  0  0
    6.5392   -2.3977   -3.9308 H   0  0  0  0  0  0  0  0  0  0  0  0
  1  6  2  0  0  0  0
  1  7  1  0  0  0  0
  2  8  1  6  0  0  0
  2  1  1  0  0  0  0
  3 14  1  6  0  0  0
  3  4  1  0  0  0  0
  3  2  1  0  0  0  0
  4  9  1  6  0  0  0
  4 29  1  0  0  0  0
  4  5  1  0  0  0  0
  5 25  1  0  0  0  0
  5  6  1  0  0  0  0
  6 11  1  0  0  0  0
 10  5  1  0  0  0  0
 11 12  2  0  0  0  0
 11 13  2  0  0  0  0
 15 14  1  0  0  0  0
 16 17  2  0  0  0  0
 16 21  1  0  0  0  0
 17 18  1  0  0  0  0
 18 30  1  0  0  0  0
 18 19  2  0  0  0  0
 19 24  1  0  0  0  0
 20 19  1  0  0  0  0
 20  2  1  0  0  0  0
 21 20  2  0  0  0  0
 22 16  1  0  0  0  0
 23 17  1  0  0  0  0
 26 21  1  0  0  0  0
 26 28  2  0  0  0  0
 26 29  1  0  0  0  0
 27 26  2  0  0  0  0
 30 32  1  0  0  0  0
 31 30  1  0  0  0  0
 33 30  1  0  0  0  0
M  RAD  3   3   2  14   2  15   3
M  END
