Coordinates from ORCA-job p-NO2-Ph-N2-H-OTs-B3LYPG-6-31G_dp-scan-d09-49-n400
 OpenBabel08281820503D

 33 34  0  0  1  0  0  0  0  0999 V2000
    2.0069    0.8872   -1.6894 C   0  0  0  0  0  0  0  0  0  0  0  0
    2.4902    0.3956   -3.0357 C   0  0  1  0  0  0  0  0  0  0  0  0
    1.4902    0.7930   -4.1368 C   0  0  0  0  0  0  0  0  0  0  0  0
    0.2339    1.4408   -3.8612 C   0  0  0  0  0  0  0  0  0  0  0  0
   -0.1183    1.7723   -2.5942 C   0  0  0  0  0  0  0  0  0  0  0  0
    0.8031    1.4555   -1.5170 C   0  0  0  0  0  0  0  0  0  0  0  0
    2.6485    0.7276   -0.8321 H   0  0  0  0  0  0  0  0  0  0  0  0
    2.4824   -0.7042   -2.9535 H   0  0  0  0  0  0  0  0  0  0  0  0
   -0.4168    1.6699   -4.6992 H   0  0  0  0  0  0  0  0  0  0  0  0
   -1.0548    2.2577   -2.3603 H   0  0  0  0  0  0  0  0  0  0  0  0
    0.4062    1.8346   -0.1458 N   0  0  0  0  0  0  0  0  0  0  0  0
   -0.6434    2.4678   -0.0291 O   0  0  0  0  0  0  0  0  0  0  0  0
    1.1320    1.4980    0.7856 O   0  0  0  0  0  0  0  0  0  0  0  0
    1.7935    0.4890   -5.3717 N   0  0  0  0  0  0  0  0  0  0  0  0
    2.0932    0.2100   -6.4413 N   0  0  0  0  0  0  0  0  0  0  0  0
    5.8960    2.1308   -3.8365 C   0  0  0  0  0  0  0  0  0  0  0  0
    6.6420    1.0186   -4.2136 C   0  0  0  0  0  0  0  0  0  0  0  0
    6.0755   -0.2575   -4.1822 C   0  0  0  0  0  0  0  0  0  0  0  0
    4.7411   -0.3684   -3.7732 C   0  0  0  0  0  0  0  0  0  0  0  0
    3.9550    0.7238   -3.3832 C   0  0  0  0  0  0  0  0  0  0  0  0
    4.5668    1.9974   -3.4226 C   0  0  0  0  0  0  0  0  0  0  0  0
    6.3348    3.1211   -3.8628 H   0  0  0  0  0  0  0  0  0  0  0  0
    7.6708    1.1506   -4.5354 H   0  0  0  0  0  0  0  0  0  0  0  0
    4.2852   -1.3559   -3.7601 H   0  0  0  0  0  0  0  0  0  0  0  0
    1.7235    3.4733   -3.2768 H   0  0  0  0  0  0  0  0  0  0  0  0
    3.8210    3.5472   -2.8748 S   0  0  0  0  0  0  0  0  0  0  0  0
    2.4812    3.6520   -3.8038 O   0  0  0  0  0  0  0  0  0  0  0  0
    4.6933    4.6315   -3.2978 O   0  0  0  0  0  0  0  0  0  0  0  0
    3.3929    3.4280   -1.4817 O   0  0  0  0  0  0  0  0  0  0  0  0
    6.8760   -1.4790   -4.5597 C   0  0  0  0  0  0  0  0  0  0  0  0
    7.5216   -1.2804   -5.4205 H   0  0  0  0  0  0  0  0  0  0  0  0
    7.5260   -1.7887   -3.7323 H   0  0  0  0  0  0  0  0  0  0  0  0
    6.2286   -2.3247   -4.8054 H   0  0  0  0  0  0  0  0  0  0  0  0
  1  6  2  0  0  0  0
  1  7  1  0  0  0  0
  2  8  1  1  0  0  0
  2  1  1  0  0  0  0
  3  4  2  0  0  0  0
  3  2  1  0  0  0  0
  4  5  1  0  0  0  0
  5 10  1  0  0  0  0
  5  6  1  0  0  0  0
  6 11  1  0  0  0  0
  9  4  1  0  0  0  0
 11 12  2  0  0  0  0
 11 13  2  0  0  0  0
 14  3  1  0  0  0  0
 15 14  1  0  0  0  0
 16 21  2  0  0  0  0
 17 18  2  0  0  0  0
 17 16  1  0  0  0  0
 18 19  1  0  0  0  0
 19 24  1  0  0  0  0
 19 20  2  0  0  0  0
 20  2  1  0  0  0  0
 21 20  1  0  0  0  0
 21 26  1  0  0  0  0
 22 16  1  0  0  0  0
 23 17  1  0  0  0  0
 26 29  2  0  0  0  0
 27 25  1  0  0  0  0
 27 26  1  0  0  0  0
 28 26  2  0  0  0  0
 30 18  1  0  0  0  0
 30 32  1  0  0  0  0
 31 30  1  0  0  0  0
 33 30  1  0  0  0  0
M  RAD  3   5   2  14   2  15   3
M  END
