Coordinates from ORCA-job p-NO2-Ph-N2-H-OTs-B3LYPG-6-31G_dp-scan-d09-49-n400
 OpenBabel08281820503D

 33 35  0  0  1  0  0  0  0  0999 V2000
    2.0800    0.6452   -1.8342 C   0  0  0  0  0  0  0  0  0  0  0  0
    2.4335    0.3701   -3.2753 C   0  0  1  0  0  0  0  0  0  0  0  0
    1.4620    1.0849   -4.1978 C   0  0  1  0  0  0  0  0  0  0  0  0
    1.0432    2.4818   -3.8780 C   0  0  1  0  0  0  0  0  0  0  0  0
    0.3064    2.3484   -2.4278 C   0  0  0  0  0  0  0  0  0  0  0  0
    1.1312    1.5138   -1.4871 C   0  0  0  0  0  0  0  0  0  0  0  0
    2.6348    0.1225   -1.0639 H   0  0  0  0  0  0  0  0  0  0  0  0
    2.3146   -0.7104   -3.4275 H   0  0  0  0  0  0  0  0  0  0  0  0
    0.3077    2.8655   -4.5823 H   0  0  0  0  0  0  0  0  0  0  0  0
   -0.5296    1.7186   -2.7712 H   0  0  0  0  0  0  0  0  0  0  0  0
    0.8272    1.6582   -0.0492 N   0  0  0  0  0  0  0  0  0  0  0  0
   -0.1511    2.3498    0.2438 O   0  0  0  0  0  0  0  0  0  0  0  0
    1.5328    1.0682    0.7641 O   0  0  0  0  0  0  0  0  0  0  0  0
    1.2756    0.6224   -5.3982 N   0  0  0  0  0  0  0  0  0  0  0  0
    1.0747    0.1793   -6.4352 N   0  0  0  0  0  0  0  0  0  0  0  0
    5.8424    2.1087   -3.9521 C   0  0  0  0  0  0  0  0  0  0  0  0
    6.6629    0.9943   -4.1121 C   0  0  0  0  0  0  0  0  0  0  0  0
    6.1415   -0.2963   -3.9942 C   0  0  0  0  0  0  0  0  0  0  0  0
    4.7721   -0.4288   -3.7262 C   0  0  0  0  0  0  0  0  0  0  0  0
    3.9208    0.6665   -3.5528 C   0  0  0  0  0  0  0  0  0  0  0  0
    4.4849    1.9536   -3.6659 C   0  0  0  0  0  0  0  0  0  0  0  0
    6.2441    3.1097   -4.0592 H   0  0  0  0  0  0  0  0  0  0  0  0
    7.7155    1.1355   -4.3397 H   0  0  0  0  0  0  0  0  0  0  0  0
    4.3493   -1.4289   -3.6549 H   0  0  0  0  0  0  0  0  0  0  0  0
   -0.2589    3.0994   -1.7861 H   0  0  0  0  0  0  0  0  0  0  0  0
    3.5863    3.5009   -3.4088 S   0  0  0  0  0  0  0  0  0  0  0  0
    2.2758    3.3454   -4.3684 O   0  0  0  0  0  0  0  0  0  0  0  0
    4.3663    4.5680   -4.0201 O   0  0  0  0  0  0  0  0  0  0  0  0
    3.1584    3.5906   -2.0144 O   0  0  0  0  0  0  0  0  0  0  0  0
    7.0196   -1.5150   -4.1357 C   0  0  0  0  0  0  0  0  0  0  0  0
    7.8980   -1.3054   -4.7518 H   0  0  0  0  0  0  0  0  0  0  0  0
    7.3791   -1.8506   -3.1556 H   0  0  0  0  0  0  0  0  0  0  0  0
    6.4772   -2.3512   -4.5864 H   0  0  0  0  0  0  0  0  0  0  0  0
  1  6  2  0  0  0  0
  1  7  1  0  0  0  0
  2  8  1  6  0  0  0
  2  1  1  0  0  0  0
  3 14  1  6  0  0  0
  3  4  1  0  0  0  0
  3  2  1  0  0  0  0
  4  9  1  6  0  0  0
  4  5  1  0  0  0  0
  5 25  1  0  0  0  0
  5  6  1  0  0  0  0
  6 11  1  0  0  0  0
 10  5  1  0  0  0  0
 11 12  2  0  0  0  0
 11 13  2  0  0  0  0
 15 14  1  0  0  0  0
 16 21  2  0  0  0  0
 17 18  2  0  0  0  0
 17 16  1  0  0  0  0
 18 19  1  0  0  0  0
 19 24  1  0  0  0  0
 19 20  2  0  0  0  0
 20  2  1  0  0  0  0
 21 20  1  0  0  0  0
 21 26  1  0  0  0  0
 22 16  1  0  0  0  0
 23 17  1  0  0  0  0
 26 29  2  0  0  0  0
 27  4  1  0  0  0  0
 27 26  1  0  0  0  0
 28 26  2  0  0  0  0
 30 18  1  0  0  0  0
 30 32  1  0  0  0  0
 31 30  1  0  0  0  0
 33 30  1  0  0  0  0
M  RAD  3   3   2  14   2  15   3
M  END
