Coordinates from ORCA-job p-NO2-Ph-N2-H-OTs-B3LYPG-6-31G_dp-scan-d09-49-n400
 OpenBabel08281820503D

 33 34  0  0  1  0  0  0  0  0999 V2000
    2.0933    0.5025   -1.9260 C   0  0  0  0  0  0  0  0  0  0  0  0
    2.3917    0.4225   -3.4051 C   0  0  1  0  0  0  0  0  0  0  0  0
    1.3568    1.2460   -4.1521 C   0  0  0  0  0  0  0  0  0  0  0  0
    0.4447    2.0824   -3.6120 C   0  0  0  0  0  0  0  0  0  0  0  0
    0.2851    2.2399   -2.1466 C   0  0  0  0  0  0  0  0  0  0  0  0
    1.1556    1.2845   -1.3941 C   0  0  0  0  0  0  0  0  0  0  0  0
    2.6927   -0.1235   -1.2746 H   0  0  0  0  0  0  0  0  0  0  0  0
    2.2481   -0.6282   -3.6970 H   0  0  0  0  0  0  0  0  0  0  0  0
   -0.1650    2.7011   -4.2623 H   0  0  0  0  0  0  0  0  0  0  0  0
   -0.7656    2.1671   -1.8450 H   0  0  0  0  0  0  0  0  0  0  0  0
    0.9631    1.2598    0.0642 N   0  0  0  0  0  0  0  0  0  0  0  0
    0.0900    2.0066    0.5080 O   0  0  0  0  0  0  0  0  0  0  0  0
    1.6583    0.5047    0.7395 O   0  0  0  0  0  0  0  0  0  0  0  0
    1.4465    1.2215   -5.5225 N   0  0  0  0  0  0  0  0  0  0  0  0
    1.5021    1.0573   -6.6263 N   0  0  0  0  0  0  0  0  0  0  0  0
    5.8267    2.1100   -4.0603 C   0  0  0  0  0  0  0  0  0  0  0  0
    6.6481    0.9862   -4.0304 C   0  0  0  0  0  0  0  0  0  0  0  0
    6.1079   -0.2902   -3.8433 C   0  0  0  0  0  0  0  0  0  0  0  0
    4.7216   -0.3903   -3.6859 C   0  0  0  0  0  0  0  0  0  0  0  0
    3.8760    0.7283   -3.6973 C   0  0  0  0  0  0  0  0  0  0  0  0
    4.4443    2.0034   -3.8934 C   0  0  0  0  0  0  0  0  0  0  0  0
    6.2392    3.1005   -4.2178 H   0  0  0  0  0  0  0  0  0  0  0  0
    7.7206    1.1027   -4.1647 H   0  0  0  0  0  0  0  0  0  0  0  0
    4.2844   -1.3773   -3.5416 H   0  0  0  0  0  0  0  0  0  0  0  0
    0.6233    3.2700   -1.9659 H   0  0  0  0  0  0  0  0  0  0  0  0
    3.4837    3.5441   -4.0536 S   0  0  0  0  0  0  0  0  0  0  0  0
    2.6807    3.3175   -5.2994 O   0  0  0  0  0  0  0  0  0  0  0  0
    4.4665    4.6315   -4.1423 O   0  0  0  0  0  0  0  0  0  0  0  0
    2.6038    3.5623   -2.8486 O   0  0  0  0  0  0  0  0  0  0  0  0
    6.9877   -1.5161   -3.7917 C   0  0  0  0  0  0  0  0  0  0  0  0
    7.8619   -1.4053   -4.4395 H   0  0  0  0  0  0  0  0  0  0  0  0
    7.3577   -1.6924   -2.7745 H   0  0  0  0  0  0  0  0  0  0  0  0
    6.4467   -2.4148   -4.1021 H   0  0  0  0  0  0  0  0  0  0  0  0
  1  6  2  0  0  0  0
  1  7  1  0  0  0  0
  2  8  1  6  0  0  0
  2  1  1  0  0  0  0
  3  4  2  0  0  0  0
  3  2  1  0  0  0  0
  4  5  1  0  0  0  0
  5 25  1  0  0  0  0
  5 10  1  0  0  0  0
  5  6  1  0  0  0  0
  6 11  1  0  0  0  0
  9  4  1  0  0  0  0
 11 12  2  0  0  0  0
 11 13  2  0  0  0  0
 14  3  1  0  0  0  0
 15 14  1  0  0  0  0
 16 17  2  0  0  0  0
 16 21  1  0  0  0  0
 17 18  1  0  0  0  0
 18 30  1  0  0  0  0
 18 19  2  0  0  0  0
 19 24  1  0  0  0  0
 20 19  1  0  0  0  0
 20  2  1  0  0  0  0
 21 20  2  0  0  0  0
 22 16  1  0  0  0  0
 23 17  1  0  0  0  0
 26 21  1  0  0  0  0
 26 29  1  0  0  0  0
 27 26  2  0  0  0  0
 28 26  2  0  0  0  0
 30 32  1  0  0  0  0
 31 30  1  0  0  0  0
 33 30  1  0  0  0  0
M  RAD  3  14   2  15   3  29   2
M  END
