Coordinates from ORCA-job p-NO2-Ph-N2-H-OTs-B3LYPG-6-31G_dp-scan-d09-49-n400
 OpenBabel08281820503D

 33 35  0  0  1  0  0  0  0  0999 V2000
    1.9963    0.5313   -1.8399 C   0  0  0  0  0  0  0  0  0  0  0  0
    2.4227    0.2630   -3.2643 C   0  0  1  0  0  0  0  0  0  0  0  0
    1.4857    0.9768   -4.2148 C   0  0  1  0  0  0  0  0  0  0  0  0
    1.0343    2.3571   -3.8918 C   0  0  1  0  0  0  0  0  0  0  0  0
    0.4793    2.4589   -2.4631 C   0  0  0  0  0  0  0  0  0  0  0  0
    1.1223    1.4850   -1.5214 C   0  0  0  0  0  0  0  0  0  0  0  0
    2.4289   -0.0740   -1.0514 H   0  0  0  0  0  0  0  0  0  0  0  0
    2.3321   -0.8181   -3.4259 H   0  0  0  0  0  0  0  0  0  0  0  0
    0.2760    2.6917   -4.6011 H   0  0  0  0  0  0  0  0  0  0  0  0
   -0.6035    2.2935   -2.4881 H   0  0  0  0  0  0  0  0  0  0  0  0
    0.7450    1.6359   -0.1043 N   0  0  0  0  0  0  0  0  0  0  0  0
   -0.0982    2.4983    0.1442 O   0  0  0  0  0  0  0  0  0  0  0  0
    1.2652    0.8978    0.7297 O   0  0  0  0  0  0  0  0  0  0  0  0
    1.3131    0.5074   -5.4149 N   0  0  0  0  0  0  0  0  0  0  0  0
    1.1279    0.0598   -6.4523 N   0  0  0  0  0  0  0  0  0  0  0  0
    5.7506    2.1254   -3.9788 C   0  0  0  0  0  0  0  0  0  0  0  0
    6.6112    1.0438   -4.1537 C   0  0  0  0  0  0  0  0  0  0  0  0
    6.1483   -0.2658   -4.0064 C   0  0  0  0  0  0  0  0  0  0  0  0
    4.7923   -0.4522   -3.7037 C   0  0  0  0  0  0  0  0  0  0  0  0
    3.9013    0.6080   -3.5179 C   0  0  0  0  0  0  0  0  0  0  0  0
    4.4085    1.9175   -3.6534 C   0  0  0  0  0  0  0  0  0  0  0  0
    6.1108    3.1404   -4.0994 H   0  0  0  0  0  0  0  0  0  0  0  0
    7.6500    1.2265   -4.4122 H   0  0  0  0  0  0  0  0  0  0  0  0
    4.4117   -1.4679   -3.6182 H   0  0  0  0  0  0  0  0  0  0  0  0
    0.6419    3.4784   -2.1099 H   0  0  0  0  0  0  0  0  0  0  0  0
    3.4984    3.4426   -3.3041 S   0  0  0  0  0  0  0  0  0  0  0  0
    2.1000    3.3529   -4.1541 O   0  0  0  0  0  0  0  0  0  0  0  0
    4.2078    4.5414   -3.9421 O   0  0  0  0  0  0  0  0  0  0  0  0
    3.1976    3.4885   -1.8745 O   0  0  0  0  0  0  0  0  0  0  0  0
    7.0725   -1.4486   -4.1561 C   0  0  0  0  0  0  0  0  0  0  0  0
    7.9392   -1.2035   -4.7754 H   0  0  0  0  0  0  0  0  0  0  0  0
    7.4484   -1.7729   -3.1784 H   0  0  0  0  0  0  0  0  0  0  0  0
    6.5607   -2.3042   -4.6065 H   0  0  0  0  0  0  0  0  0  0  0  0
  1  6  2  0  0  0  0
  1  7  1  0  0  0  0
  2  8  1  6  0  0  0
  2  1  1  0  0  0  0
  3 14  1  6  0  0  0
  3  4  1  0  0  0  0
  3  2  1  0  0  0  0
  4  9  1  6  0  0  0
  4  5  1  0  0  0  0
  5 25  1  0  0  0  0
  5  6  1  0  0  0  0
  6 11  1  0  0  0  0
 10  5  1  0  0  0  0
 11 12  2  0  0  0  0
 11 13  2  0  0  0  0
 15 14  1  0  0  0  0
 16 21  2  0  0  0  0
 17 18  2  0  0  0  0
 17 16  1  0  0  0  0
 18 19  1  0  0  0  0
 19 24  1  0  0  0  0
 19 20  2  0  0  0  0
 20  2  1  0  0  0  0
 21 20  1  0  0  0  0
 21 26  1  0  0  0  0
 22 16  1  0  0  0  0
 23 17  1  0  0  0  0
 26 29  2  0  0  0  0
 27  4  1  0  0  0  0
 27 26  1  0  0  0  0
 28 26  2  0  0  0  0
 30 18  1  0  0  0  0
 30 32  1  0  0  0  0
 31 30  1  0  0  0  0
 33 30  1  0  0  0  0
M  RAD  3   3   2  14   2  15   3
M  END
