Coordinates from ORCA-job p-NO2-Ph-N2-H-OTs-B3LYPG-6-31G_dp-scan-d09-49-n400
 OpenBabel08281820503D

 33 34  0  0  1  0  0  0  0  0999 V2000
    2.0027    0.8277   -1.6879 C   0  0  0  0  0  0  0  0  0  0  0  0
    2.4841    0.3664   -3.0455 C   0  0  1  0  0  0  0  0  0  0  0  0
    1.4789    0.7824   -4.1341 C   0  0  0  0  0  0  0  0  0  0  0  0
    0.2713    1.5138   -3.8550 C   0  0  0  0  0  0  0  0  0  0  0  0
   -0.0540    1.8648   -2.5841 C   0  0  0  0  0  0  0  0  0  0  0  0
    0.8332    1.4594   -1.5071 C   0  0  0  0  0  0  0  0  0  0  0  0
    2.6257    0.6051   -0.8306 H   0  0  0  0  0  0  0  0  0  0  0  0
    2.4837   -0.7339   -2.9885 H   0  0  0  0  0  0  0  0  0  0  0  0
   -0.3647    1.7906   -4.6899 H   0  0  0  0  0  0  0  0  0  0  0  0
   -0.9565    2.4092   -2.3459 H   0  0  0  0  0  0  0  0  0  0  0  0
    0.4428    1.8202   -0.1302 N   0  0  0  0  0  0  0  0  0  0  0  0
   -0.5756    2.5005   -0.0047 O   0  0  0  0  0  0  0  0  0  0  0  0
    1.1394    1.4173    0.7972 O   0  0  0  0  0  0  0  0  0  0  0  0
    1.7462    0.4392   -5.3680 N   0  0  0  0  0  0  0  0  0  0  0  0
    2.0146    0.1183   -6.4334 N   0  0  0  0  0  0  0  0  0  0  0  0
    5.8722    2.1394   -3.8402 C   0  0  0  0  0  0  0  0  0  0  0  0
    6.6332    1.0340   -4.2090 C   0  0  0  0  0  0  0  0  0  0  0  0
    6.0826   -0.2483   -4.1732 C   0  0  0  0  0  0  0  0  0  0  0  0
    4.7475   -0.3722   -3.7694 C   0  0  0  0  0  0  0  0  0  0  0  0
    3.9475    0.7129   -3.3881 C   0  0  0  0  0  0  0  0  0  0  0  0
    4.5435    1.9946   -3.4301 C   0  0  0  0  0  0  0  0  0  0  0  0
    6.2998    3.1346   -3.8693 H   0  0  0  0  0  0  0  0  0  0  0  0
    7.6614    1.1769   -4.5282 H   0  0  0  0  0  0  0  0  0  0  0  0
    4.3030   -1.3650   -3.7537 H   0  0  0  0  0  0  0  0  0  0  0  0
    1.6271    3.3762   -3.3471 H   0  0  0  0  0  0  0  0  0  0  0  0
    3.7778    3.5447   -2.8982 S   0  0  0  0  0  0  0  0  0  0  0  0
    2.4757    3.6754   -3.8694 O   0  0  0  0  0  0  0  0  0  0  0  0
    4.6679    4.6290   -3.2853 O   0  0  0  0  0  0  0  0  0  0  0  0
    3.3169    3.4103   -1.5168 O   0  0  0  0  0  0  0  0  0  0  0  0
    6.8984   -1.4634   -4.5382 C   0  0  0  0  0  0  0  0  0  0  0  0
    7.6171   -1.2359   -5.3307 H   0  0  0  0  0  0  0  0  0  0  0  0
    7.4701   -1.8219   -3.6734 H   0  0  0  0  0  0  0  0  0  0  0  0
    6.2646   -2.2877   -4.8761 H   0  0  0  0  0  0  0  0  0  0  0  0
  1  6  2  0  0  0  0
  1  7  1  0  0  0  0
  2  8  1  1  0  0  0
  2  1  1  0  0  0  0
  3  4  2  0  0  0  0
  3  2  1  0  0  0  0
  4  5  1  0  0  0  0
  5 10  1  0  0  0  0
  5  6  1  0  0  0  0
  6 11  1  0  0  0  0
  9  4  1  0  0  0  0
 11 12  2  0  0  0  0
 11 13  2  0  0  0  0
 14  3  1  0  0  0  0
 15 14  1  0  0  0  0
 16 21  2  0  0  0  0
 17 18  2  0  0  0  0
 17 16  1  0  0  0  0
 18 19  1  0  0  0  0
 19 24  1  0  0  0  0
 19 20  2  0  0  0  0
 20  2  1  0  0  0  0
 21 20  1  0  0  0  0
 21 26  1  0  0  0  0
 22 16  1  0  0  0  0
 23 17  1  0  0  0  0
 26 29  2  0  0  0  0
 27 25  1  0  0  0  0
 27 26  1  0  0  0  0
 28 26  2  0  0  0  0
 30 18  1  0  0  0  0
 30 32  1  0  0  0  0
 31 30  1  0  0  0  0
 33 30  1  0  0  0  0
M  RAD  3   5   2  14   2  15   3
M  END
