Coordinates from ORCA-job p-NO2-Ph-N2-H-OTs-B3LYPG-6-31G_dp-scan-d09-49-n400
 OpenBabel08281820503D

 33 34  0  0  1  0  0  0  0  0999 V2000
    1.9703    0.7606   -1.6757 C   0  0  0  0  0  0  0  0  0  0  0  0
    2.4993    0.2836   -3.0076 C   0  0  1  0  0  0  0  0  0  0  0  0
    1.4869    0.6561   -4.1094 C   0  0  0  0  0  0  0  0  0  0  0  0
    0.4221    1.5345   -3.9547 C   0  0  0  0  0  0  0  0  0  0  0  0
    0.2683    2.2283   -2.7281 C   0  0  0  0  0  0  0  0  0  0  0  0
    0.9309    1.5888   -1.5657 C   0  0  0  0  0  0  0  0  0  0  0  0
    2.4650    0.3986   -0.7827 H   0  0  0  0  0  0  0  0  0  0  0  0
    2.5184   -0.8130   -2.9456 H   0  0  0  0  0  0  0  0  0  0  0  0
   -0.1920    1.7937   -4.8125 H   0  0  0  0  0  0  0  0  0  0  0  0
   -0.6718    2.7353   -2.5365 H   0  0  0  0  0  0  0  0  0  0  0  0
    0.4802    1.9998   -0.2305 N   0  0  0  0  0  0  0  0  0  0  0  0
   -0.4017    2.8583   -0.1878 O   0  0  0  0  0  0  0  0  0  0  0  0
    0.9871    1.4544    0.7447 O   0  0  0  0  0  0  0  0  0  0  0  0
    1.7051    0.1438   -5.3228 N   0  0  0  0  0  0  0  0  0  0  0  0
    1.9401   -0.3340   -6.3195 N   0  0  0  0  0  0  0  0  0  0  0  0
    5.8080    2.1597   -3.8046 C   0  0  0  0  0  0  0  0  0  0  0  0
    6.5871    1.0869   -4.2303 C   0  0  0  0  0  0  0  0  0  0  0  0
    6.0741   -0.2122   -4.2266 C   0  0  0  0  0  0  0  0  0  0  0  0
    4.7531   -0.3814   -3.7992 C   0  0  0  0  0  0  0  0  0  0  0  0
    3.9427    0.6805   -3.3671 C   0  0  0  0  0  0  0  0  0  0  0  0
    4.4924    1.9835   -3.3667 C   0  0  0  0  0  0  0  0  0  0  0  0
    6.2077    3.1675   -3.8031 H   0  0  0  0  0  0  0  0  0  0  0  0
    7.6055    1.2656   -4.5641 H   0  0  0  0  0  0  0  0  0  0  0  0
    4.3362   -1.3874   -3.7965 H   0  0  0  0  0  0  0  0  0  0  0  0
    1.1425    3.0906   -3.0476 H   0  0  0  0  0  0  0  0  0  0  0  0
    3.6849    3.5088   -2.7573 S   0  0  0  0  0  0  0  0  0  0  0  0
    2.3915    3.5903   -3.5924 O   0  0  0  0  0  0  0  0  0  0  0  0
    4.5963    4.6026   -3.1080 O   0  0  0  0  0  0  0  0  0  0  0  0
    3.4047    3.2799   -1.3290 O   0  0  0  0  0  0  0  0  0  0  0  0
    6.9161   -1.3940   -4.6421 C   0  0  0  0  0  0  0  0  0  0  0  0
    7.6275   -1.1194   -5.4265 H   0  0  0  0  0  0  0  0  0  0  0  0
    7.4987   -1.7768   -3.7951 H   0  0  0  0  0  0  0  0  0  0  0  0
    6.3009   -2.2188   -5.0135 H   0  0  0  0  0  0  0  0  0  0  0  0
  1  6  2  0  0  0  0
  1  7  1  0  0  0  0
  2  8  1  1  0  0  0
  2  1  1  0  0  0  0
  3  4  2  0  0  0  0
  3  2  1  0  0  0  0
  4  5  1  0  0  0  0
  5 10  1  0  0  0  0
  5  6  1  0  0  0  0
  6 11  1  0  0  0  0
  9  4  1  0  0  0  0
 11 12  2  0  0  0  0
 11 13  2  0  0  0  0
 14  3  1  0  0  0  0
 15 14  1  0  0  0  0
 16 22  1  0  0  0  0
 16 21  2  0  0  0  0
 17 18  2  0  0  0  0
 17 16  1  0  0  0  0
 18 19  1  0  0  0  0
 19 24  1  0  0  0  0
 19 20  2  0  0  0  0
 20 21  1  0  0  0  0
 20  2  1  0  0  0  0
 21 26  1  0  0  0  0
 23 17  1  0  0  0  0
 25  5  1  0  0  0  0
 26 29  1  0  0  0  0
 27 26  2  0  0  0  0
 28 26  2  0  0  0  0
 30 18  1  0  0  0  0
 30 32  1  0  0  0  0
 31 30  1  0  0  0  0
 33 30  1  0  0  0  0
M  RAD  3  14   2  15   3  29   2
M  END
