Coordinates from ORCA-job p-NO2-Ph-N2-H-OTs-B3LYPG-6-31G_dp-scan-d09-49-n400
 OpenBabel08281820503D

 33 35  0  0  1  0  0  0  0  0999 V2000
    1.9741    0.5225   -1.8298 C   0  0  0  0  0  0  0  0  0  0  0  0
    2.4223    0.2481   -3.2472 C   0  0  1  0  0  0  0  0  0  0  0  0
    1.5033    0.9603   -4.2156 C   0  0  1  0  0  0  0  0  0  0  0  0
    1.0224    2.3250   -3.8914 C   0  0  1  0  0  0  0  0  0  0  0  0
    0.4916    2.4682   -2.4675 C   0  0  0  0  0  0  0  0  0  0  0  0
    1.1004    1.4807   -1.5213 C   0  0  0  0  0  0  0  0  0  0  0  0
    2.3889   -0.0872   -1.0351 H   0  0  0  0  0  0  0  0  0  0  0  0
    2.3348   -0.8339   -3.4044 H   0  0  0  0  0  0  0  0  0  0  0  0
    0.2750    2.6562   -4.6138 H   0  0  0  0  0  0  0  0  0  0  0  0
   -0.6002    2.4235   -2.4336 H   0  0  0  0  0  0  0  0  0  0  0  0
    0.7087    1.6354   -0.1082 N   0  0  0  0  0  0  0  0  0  0  0  0
   -0.1151    2.5179    0.1327 O   0  0  0  0  0  0  0  0  0  0  0  0
    1.2006    0.8814    0.7289 O   0  0  0  0  0  0  0  0  0  0  0  0
    1.3600    0.4950   -5.4217 N   0  0  0  0  0  0  0  0  0  0  0  0
    1.2021    0.0496   -6.4642 N   0  0  0  0  0  0  0  0  0  0  0  0
    5.7268    2.1268   -4.0036 C   0  0  0  0  0  0  0  0  0  0  0  0
    6.5935    1.0506   -4.1835 C   0  0  0  0  0  0  0  0  0  0  0  0
    6.1453   -0.2613   -4.0150 C   0  0  0  0  0  0  0  0  0  0  0  0
    4.7955   -0.4569   -3.6897 C   0  0  0  0  0  0  0  0  0  0  0  0
    3.8992    0.5974   -3.4998 C   0  0  0  0  0  0  0  0  0  0  0  0
    4.3923    1.9102   -3.6542 C   0  0  0  0  0  0  0  0  0  0  0  0
    6.0770    3.1438   -4.1364 H   0  0  0  0  0  0  0  0  0  0  0  0
    7.6262    1.2398   -4.4612 H   0  0  0  0  0  0  0  0  0  0  0  0
    4.4244   -1.4749   -3.5911 H   0  0  0  0  0  0  0  0  0  0  0  0
    0.8222    3.4800   -2.2336 H   0  0  0  0  0  0  0  0  0  0  0  0
    3.4879    3.4307   -3.2693 S   0  0  0  0  0  0  0  0  0  0  0  0
    2.0562    3.3711   -4.0677 O   0  0  0  0  0  0  0  0  0  0  0  0
    4.1789    4.5384   -3.9126 O   0  0  0  0  0  0  0  0  0  0  0  0
    3.2382    3.4568   -1.8291 O   0  0  0  0  0  0  0  0  0  0  0  0
    7.0772   -1.4377   -4.1677 C   0  0  0  0  0  0  0  0  0  0  0  0
    7.9395   -1.1869   -4.7909 H   0  0  0  0  0  0  0  0  0  0  0  0
    7.4592   -1.7586   -3.1913 H   0  0  0  0  0  0  0  0  0  0  0  0
    6.5695   -2.2971   -4.6153 H   0  0  0  0  0  0  0  0  0  0  0  0
  1  6  2  0  0  0  0
  1  7  1  0  0  0  0
  2  8  1  6  0  0  0
  2  1  1  0  0  0  0
  3 14  1  6  0  0  0
  3  4  1  0  0  0  0
  3  2  1  0  0  0  0
  4  9  1  6  0  0  0
  4  5  1  0  0  0  0
  5 10  1  0  0  0  0
  5 25  1  0  0  0  0
  5  6  1  0  0  0  0
  6 11  1  0  0  0  0
 11 12  2  0  0  0  0
 11 13  2  0  0  0  0
 15 14  1  0  0  0  0
 16 21  2  0  0  0  0
 17 18  2  0  0  0  0
 17 16  1  0  0  0  0
 18 19  1  0  0  0  0
 19 24  1  0  0  0  0
 19 20  2  0  0  0  0
 20  2  1  0  0  0  0
 21 20  1  0  0  0  0
 21 26  1  0  0  0  0
 22 16  1  0  0  0  0
 23 17  1  0  0  0  0
 26 29  2  0  0  0  0
 27  4  1  0  0  0  0
 27 26  1  0  0  0  0
 28 26  2  0  0  0  0
 30 18  1  0  0  0  0
 30 32  1  0  0  0  0
 31 30  1  0  0  0  0
 33 30  1  0  0  0  0
M  RAD  3   3   2  14   2  15   3
M  END
