Coordinates from ORCA-job p-NO2-Ph-N2-H-OTs-B3LYPG-6-31G_dp-scan-d09-49-n400
 OpenBabel08281820503D

 33 35  0  0  1  0  0  0  0  0999 V2000
    2.0487    0.5898   -1.8422 C   0  0  0  0  0  0  0  0  0  0  0  0
    2.4273    0.3149   -3.2776 C   0  0  1  0  0  0  0  0  0  0  0  0
    1.4660    1.0288   -4.2077 C   0  0  1  0  0  0  0  0  0  0  0  0
    1.0516    2.4305   -3.8906 C   0  0  1  0  0  0  0  0  0  0  0  0
    0.3964    2.4049   -2.4590 C   0  0  0  0  0  0  0  0  0  0  0  0
    1.1460    1.5110   -1.5102 C   0  0  0  0  0  0  0  0  0  0  0  0
    2.5478    0.0265   -1.0624 H   0  0  0  0  0  0  0  0  0  0  0  0
    2.3221   -0.7657   -3.4346 H   0  0  0  0  0  0  0  0  0  0  0  0
    0.3002    2.7878   -4.5948 H   0  0  0  0  0  0  0  0  0  0  0  0
   -0.5747    1.9311   -2.6673 H   0  0  0  0  0  0  0  0  0  0  0  0
    0.8136    1.6679   -0.0815 N   0  0  0  0  0  0  0  0  0  0  0  0
   -0.1011    2.4491    0.1872 O   0  0  0  0  0  0  0  0  0  0  0  0
    1.4361    1.0067    0.7458 O   0  0  0  0  0  0  0  0  0  0  0  0
    1.2652    0.5554   -5.4007 N   0  0  0  0  0  0  0  0  0  0  0  0
    1.0527    0.1047   -6.4323 N   0  0  0  0  0  0  0  0  0  0  0  0
    5.8044    2.1165   -3.9387 C   0  0  0  0  0  0  0  0  0  0  0  0
    6.6439    1.0184   -4.1122 C   0  0  0  0  0  0  0  0  0  0  0  0
    6.1470   -0.2823   -4.0003 C   0  0  0  0  0  0  0  0  0  0  0  0
    4.7814   -0.4419   -3.7275 C   0  0  0  0  0  0  0  0  0  0  0  0
    3.9109    0.6358   -3.5419 C   0  0  0  0  0  0  0  0  0  0  0  0
    4.4512    1.9341   -3.6464 C   0  0  0  0  0  0  0  0  0  0  0  0
    6.1885    3.1250   -4.0390 H   0  0  0  0  0  0  0  0  0  0  0  0
    7.6923    1.1808   -4.3444 H   0  0  0  0  0  0  0  0  0  0  0  0
    4.3769   -1.4500   -3.6631 H   0  0  0  0  0  0  0  0  0  0  0  0
    0.1036    3.3248   -1.9164 H   0  0  0  0  0  0  0  0  0  0  0  0
    3.5416    3.4686   -3.3491 S   0  0  0  0  0  0  0  0  0  0  0  0
    2.1992    3.3320   -4.2757 O   0  0  0  0  0  0  0  0  0  0  0  0
    4.2882    4.5520   -3.9712 O   0  0  0  0  0  0  0  0  0  0  0  0
    3.1537    3.5420   -1.9427 O   0  0  0  0  0  0  0  0  0  0  0  0
    7.0464   -1.4838   -4.1532 C   0  0  0  0  0  0  0  0  0  0  0  0
    7.9208   -1.2533   -4.7674 H   0  0  0  0  0  0  0  0  0  0  0  0
    7.4117   -1.8218   -3.1761 H   0  0  0  0  0  0  0  0  0  0  0  0
    6.5185   -2.3254   -4.6111 H   0  0  0  0  0  0  0  0  0  0  0  0
  1  6  2  0  0  0  0
  1  7  1  0  0  0  0
  2  8  1  6  0  0  0
  2  1  1  0  0  0  0
  3 14  1  6  0  0  0
  3  4  1  0  0  0  0
  3  2  1  0  0  0  0
  4  9  1  6  0  0  0
  4  5  1  0  0  0  0
  5 25  1  0  0  0  0
  5  6  1  0  0  0  0
  6 11  1  0  0  0  0
 10  5  1  0  0  0  0
 11 12  2  0  0  0  0
 11 13  2  0  0  0  0
 15 14  1  0  0  0  0
 16 21  2  0  0  0  0
 17 18  2  0  0  0  0
 17 16  1  0  0  0  0
 18 19  1  0  0  0  0
 19 24  1  0  0  0  0
 19 20  2  0  0  0  0
 20  2  1  0  0  0  0
 21 20  1  0  0  0  0
 21 26  1  0  0  0  0
 22 16  1  0  0  0  0
 23 17  1  0  0  0  0
 26 29  2  0  0  0  0
 27  4  1  0  0  0  0
 27 26  1  0  0  0  0
 28 26  2  0  0  0  0
 30 18  1  0  0  0  0
 30 32  1  0  0  0  0
 31 30  1  0  0  0  0
 33 30  1  0  0  0  0
M  RAD  3   3   2  14   2  15   3
M  END
