Coordinates from ORCA-job p-NO2-Ph-N2-H-OTs-B3LYPG-6-31G_dp-scan-d09-49-n400
 OpenBabel08281820503D

 33 34  0  0  1  0  0  0  0  0999 V2000
    2.0930    0.5003   -1.9276 C   0  0  0  0  0  0  0  0  0  0  0  0
    2.3906    0.4216   -3.4070 C   0  0  1  0  0  0  0  0  0  0  0  0
    1.3561    1.2465   -4.1527 C   0  0  0  0  0  0  0  0  0  0  0  0
    0.4486    2.0872   -3.6108 C   0  0  0  0  0  0  0  0  0  0  0  0
    0.2873    2.2408   -2.1452 C   0  0  0  0  0  0  0  0  0  0  0  0
    1.1570    1.2834   -1.3942 C   0  0  0  0  0  0  0  0  0  0  0  0
    2.6918   -0.1273   -1.2772 H   0  0  0  0  0  0  0  0  0  0  0  0
    2.2470   -0.6288   -3.6998 H   0  0  0  0  0  0  0  0  0  0  0  0
   -0.1589    2.7091   -4.2601 H   0  0  0  0  0  0  0  0  0  0  0  0
   -0.7639    2.1659   -1.8455 H   0  0  0  0  0  0  0  0  0  0  0  0
    0.9654    1.2573    0.0642 N   0  0  0  0  0  0  0  0  0  0  0  0
    0.0932    2.0046    0.5091 O   0  0  0  0  0  0  0  0  0  0  0  0
    1.6603    0.5011    0.7384 O   0  0  0  0  0  0  0  0  0  0  0  0
    1.4439    1.2218   -5.5229 N   0  0  0  0  0  0  0  0  0  0  0  0
    1.4969    1.0568   -6.6269 N   0  0  0  0  0  0  0  0  0  0  0  0
    5.8257    2.1102   -4.0598 C   0  0  0  0  0  0  0  0  0  0  0  0
    6.6475    0.9867   -4.0286 C   0  0  0  0  0  0  0  0  0  0  0  0
    6.1074   -0.2898   -3.8418 C   0  0  0  0  0  0  0  0  0  0  0  0
    4.7211   -0.3903   -3.6858 C   0  0  0  0  0  0  0  0  0  0  0  0
    3.8750    0.7280   -3.6984 C   0  0  0  0  0  0  0  0  0  0  0  0
    4.4432    2.0032   -3.8942 C   0  0  0  0  0  0  0  0  0  0  0  0
    6.2381    3.1008   -4.2172 H   0  0  0  0  0  0  0  0  0  0  0  0
    7.7201    1.1036   -4.1617 H   0  0  0  0  0  0  0  0  0  0  0  0
    4.2840   -1.3774   -3.5417 H   0  0  0  0  0  0  0  0  0  0  0  0
    0.6236    3.2705   -1.9603 H   0  0  0  0  0  0  0  0  0  0  0  0
    3.4827    3.5438   -4.0575 S   0  0  0  0  0  0  0  0  0  0  0  0
    2.6824    3.3166   -5.3047 O   0  0  0  0  0  0  0  0  0  0  0  0
    4.4654    4.6314   -4.1436 O   0  0  0  0  0  0  0  0  0  0  0  0
    2.5993    3.5625   -2.8546 O   0  0  0  0  0  0  0  0  0  0  0  0
    6.9877   -1.5154   -3.7890 C   0  0  0  0  0  0  0  0  0  0  0  0
    7.8613   -1.4054   -4.4378 H   0  0  0  0  0  0  0  0  0  0  0  0
    7.3586   -1.6900   -2.7719 H   0  0  0  0  0  0  0  0  0  0  0  0
    6.4465   -2.4147   -4.0975 H   0  0  0  0  0  0  0  0  0  0  0  0
  1  6  2  0  0  0  0
  1  7  1  0  0  0  0
  2  8  1  6  0  0  0
  2  1  1  0  0  0  0
  3  4  2  0  0  0  0
  3  2  1  0  0  0  0
  4  5  1  0  0  0  0
  5 25  1  0  0  0  0
  5 10  1  0  0  0  0
  5  6  1  0  0  0  0
  6 11  1  0  0  0  0
  9  4  1  0  0  0  0
 11 12  2  0  0  0  0
 11 13  2  0  0  0  0
 14  3  1  0  0  0  0
 15 14  1  0  0  0  0
 16 17  2  0  0  0  0
 16 21  1  0  0  0  0
 17 18  1  0  0  0  0
 18 30  1  0  0  0  0
 18 19  2  0  0  0  0
 19 24  1  0  0  0  0
 20 19  1  0  0  0  0
 20  2  1  0  0  0  0
 21 20  2  0  0  0  0
 22 16  1  0  0  0  0
 23 17  1  0  0  0  0
 26 21  1  0  0  0  0
 26 29  1  0  0  0  0
 27 26  2  0  0  0  0
 28 26  2  0  0  0  0
 30 32  1  0  0  0  0
 31 30  1  0  0  0  0
 33 30  1  0  0  0  0
M  RAD  3  14   2  15   3  29   2
M  END
