Coordinates from ORCA-job p-NO2-Ph-N2-H-OTs-B3LYPG-6-31G_dp-scan-d09-49-n400
 OpenBabel08281820503D

 33 34  0  0  1  0  0  0  0  0999 V2000
    1.9717    0.7368   -1.6836 C   0  0  0  0  0  0  0  0  0  0  0  0
    2.4802    0.2786   -3.0309 C   0  0  1  0  0  0  0  0  0  0  0  0
    1.4700    0.6685   -4.1260 C   0  0  0  0  0  0  0  0  0  0  0  0
    0.3890    1.5688   -3.9146 C   0  0  0  0  0  0  0  0  0  0  0  0
    0.1632    2.0987   -2.6679 C   0  0  0  0  0  0  0  0  0  0  0  0
    0.9080    1.5371   -1.5441 C   0  0  0  0  0  0  0  0  0  0  0  0
    2.5065    0.4024   -0.8031 H   0  0  0  0  0  0  0  0  0  0  0  0
    2.5082   -0.8187   -2.9780 H   0  0  0  0  0  0  0  0  0  0  0  0
   -0.2018    1.8891   -4.7671 H   0  0  0  0  0  0  0  0  0  0  0  0
   -0.6775    2.7488   -2.4668 H   0  0  0  0  0  0  0  0  0  0  0  0
    0.4952    1.9405   -0.1897 N   0  0  0  0  0  0  0  0  0  0  0  0
   -0.4124    2.7684   -0.1138 O   0  0  0  0  0  0  0  0  0  0  0  0
    1.0630    1.4220    0.7664 O   0  0  0  0  0  0  0  0  0  0  0  0
    1.6766    0.1985   -5.3371 N   0  0  0  0  0  0  0  0  0  0  0  0
    1.8927   -0.2451   -6.3641 N   0  0  0  0  0  0  0  0  0  0  0  0
    5.8077    2.1593   -3.8050 C   0  0  0  0  0  0  0  0  0  0  0  0
    6.5928    1.0830   -4.2106 C   0  0  0  0  0  0  0  0  0  0  0  0
    6.0787   -0.2143   -4.1996 C   0  0  0  0  0  0  0  0  0  0  0  0
    4.7522   -0.3806   -3.7847 C   0  0  0  0  0  0  0  0  0  0  0  0
    3.9314    0.6782   -3.3711 C   0  0  0  0  0  0  0  0  0  0  0  0
    4.4876    1.9797   -3.3823 C   0  0  0  0  0  0  0  0  0  0  0  0
    6.2098    3.1656   -3.8124 H   0  0  0  0  0  0  0  0  0  0  0  0
    7.6137    1.2605   -4.5364 H   0  0  0  0  0  0  0  0  0  0  0  0
    4.3341   -1.3855   -3.7843 H   0  0  0  0  0  0  0  0  0  0  0  0
    1.3839    3.1229   -3.2229 H   0  0  0  0  0  0  0  0  0  0  0  0
    3.6928    3.5129   -2.8025 S   0  0  0  0  0  0  0  0  0  0  0  0
    2.4021    3.6499   -3.7230 O   0  0  0  0  0  0  0  0  0  0  0  0
    4.5881    4.6078   -3.1631 O   0  0  0  0  0  0  0  0  0  0  0  0
    3.3123    3.3223   -1.3997 O   0  0  0  0  0  0  0  0  0  0  0  0
    6.9210   -1.4010   -4.5983 C   0  0  0  0  0  0  0  0  0  0  0  0
    7.6832   -1.1198   -5.3303 H   0  0  0  0  0  0  0  0  0  0  0  0
    7.4419   -1.8195   -3.7284 H   0  0  0  0  0  0  0  0  0  0  0  0
    6.3123   -2.2013   -5.0291 H   0  0  0  0  0  0  0  0  0  0  0  0
  1  6  2  0  0  0  0
  1  7  1  0  0  0  0
  2  8  1  1  0  0  0
  2  1  1  0  0  0  0
  3  4  2  0  0  0  0
  3  2  1  0  0  0  0
  4  5  1  0  0  0  0
  5 10  1  0  0  0  0
  5  6  1  0  0  0  0
  6 11  1  0  0  0  0
  9  4  1  0  0  0  0
 11 12  2  0  0  0  0
 11 13  2  0  0  0  0
 14  3  1  0  0  0  0
 15 14  1  0  0  0  0
 16 21  2  0  0  0  0
 17 18  2  0  0  0  0
 17 16  1  0  0  0  0
 18 19  1  0  0  0  0
 19 24  1  0  0  0  0
 19 20  2  0  0  0  0
 20  2  1  0  0  0  0
 21 20  1  0  0  0  0
 21 26  1  0  0  0  0
 22 16  1  0  0  0  0
 23 17  1  0  0  0  0
 26 29  2  0  0  0  0
 27 25  1  0  0  0  0
 27 26  1  0  0  0  0
 28 26  2  0  0  0  0
 30 18  1  0  0  0  0
 30 32  1  0  0  0  0
 31 30  1  0  0  0  0
 33 30  1  0  0  0  0
M  RAD  3   5   2  14   2  15   3
M  END
