Coordinates from ORCA-job p-NO2-Ph-N2-H-OTs-B3LYPG-6-31G_dp-scan-d09-49-n400
 OpenBabel08281820503D

 33 35  0  0  1  0  0  0  0  0999 V2000
    2.0183    0.5493   -1.8446 C   0  0  0  0  0  0  0  0  0  0  0  0
    2.4234    0.2802   -3.2744 C   0  0  1  0  0  0  0  0  0  0  0  0
    1.4742    0.9947   -4.2136 C   0  0  1  0  0  0  0  0  0  0  0  0
    1.0434    2.3861   -3.8929 C   0  0  1  0  0  0  0  0  0  0  0  0
    0.4534    2.4410   -2.4633 C   0  0  0  0  0  0  0  0  0  0  0  0
    1.1384    1.4949   -1.5197 C   0  0  0  0  0  0  0  0  0  0  0  0
    2.4750   -0.0431   -1.0601 H   0  0  0  0  0  0  0  0  0  0  0  0
    2.3277   -0.8004   -3.4362 H   0  0  0  0  0  0  0  0  0  0  0  0
    0.2843    2.7286   -4.5973 H   0  0  0  0  0  0  0  0  0  0  0  0
   -0.6001    2.1474   -2.5569 H   0  0  0  0  0  0  0  0  0  0  0  0
    0.7791    1.6484   -0.0980 N   0  0  0  0  0  0  0  0  0  0  0  0
   -0.0882    2.4851    0.1574 O   0  0  0  0  0  0  0  0  0  0  0  0
    1.3400    0.9397    0.7347 O   0  0  0  0  0  0  0  0  0  0  0  0
    1.2837    0.5226   -5.4094 N   0  0  0  0  0  0  0  0  0  0  0  0
    1.0817    0.0732   -6.4432 N   0  0  0  0  0  0  0  0  0  0  0  0
    5.7720    2.1224   -3.9563 C   0  0  0  0  0  0  0  0  0  0  0  0
    6.6252    1.0351   -4.1306 C   0  0  0  0  0  0  0  0  0  0  0  0
    6.1487   -0.2717   -4.0023 C   0  0  0  0  0  0  0  0  0  0  0  0
    4.7879   -0.4487   -3.7163 C   0  0  0  0  0  0  0  0  0  0  0  0
    3.9039    0.6177   -3.5306 C   0  0  0  0  0  0  0  0  0  0  0  0
    4.4243    1.9235   -3.6489 C   0  0  0  0  0  0  0  0  0  0  0  0
    6.1418    3.1353   -4.0656 H   0  0  0  0  0  0  0  0  0  0  0  0
    7.6688    1.2108   -4.3748 H   0  0  0  0  0  0  0  0  0  0  0  0
    4.3980   -1.4618   -3.6426 H   0  0  0  0  0  0  0  0  0  0  0  0
    0.4353    3.4429   -2.0228 H   0  0  0  0  0  0  0  0  0  0  0  0
    3.5120    3.4519   -3.3230 S   0  0  0  0  0  0  0  0  0  0  0  0
    2.1394    3.3401   -4.2101 O   0  0  0  0  0  0  0  0  0  0  0  0
    4.2369    4.5447   -3.9538 O   0  0  0  0  0  0  0  0  0  0  0  0
    3.1699    3.5103   -1.9037 O   0  0  0  0  0  0  0  0  0  0  0  0
    7.0640   -1.4614   -4.1531 C   0  0  0  0  0  0  0  0  0  0  0  0
    7.9345   -1.2210   -4.7689 H   0  0  0  0  0  0  0  0  0  0  0  0
    7.4346   -1.7917   -3.1754 H   0  0  0  0  0  0  0  0  0  0  0  0
    6.5469   -2.3113   -4.6080 H   0  0  0  0  0  0  0  0  0  0  0  0
  1  6  2  0  0  0  0
  1  7  1  0  0  0  0
  2  8  1  6  0  0  0
  2  1  1  0  0  0  0
  3 14  1  6  0  0  0
  3  4  1  0  0  0  0
  3  2  1  0  0  0  0
  4  9  1  6  0  0  0
  4  5  1  0  0  0  0
  5 25  1  0  0  0  0
  5  6  1  0  0  0  0
  6 11  1  0  0  0  0
 10  5  1  0  0  0  0
 11 12  2  0  0  0  0
 11 13  2  0  0  0  0
 15 14  1  0  0  0  0
 16 21  2  0  0  0  0
 17 18  2  0  0  0  0
 17 16  1  0  0  0  0
 18 19  1  0  0  0  0
 19 24  1  0  0  0  0
 19 20  2  0  0  0  0
 20  2  1  0  0  0  0
 21 20  1  0  0  0  0
 21 26  1  0  0  0  0
 22 16  1  0  0  0  0
 23 17  1  0  0  0  0
 26 29  2  0  0  0  0
 27  4  1  0  0  0  0
 27 26  1  0  0  0  0
 28 26  2  0  0  0  0
 30 18  1  0  0  0  0
 30 32  1  0  0  0  0
 31 30  1  0  0  0  0
 33 30  1  0  0  0  0
M  RAD  3   3   2  14   2  15   3
M  END
