Coordinates from ORCA-job p-NO2-Ph-N2-H-OTs-B3LYPG-6-31G_dp-scan-d09-49-n400
 OpenBabel08281820503D

 33 34  0  0  1  0  0  0  0  0999 V2000
    1.9681    0.7335   -1.6830 C   0  0  0  0  0  0  0  0  0  0  0  0
    2.4817    0.2693   -3.0261 C   0  0  1  0  0  0  0  0  0  0  0  0
    1.4699    0.6510   -4.1236 C   0  0  0  0  0  0  0  0  0  0  0  0
    0.3999    1.5577   -3.9281 C   0  0  0  0  0  0  0  0  0  0  0  0
    0.2009    2.1346   -2.6903 C   0  0  0  0  0  0  0  0  0  0  0  0
    0.9201    1.5543   -1.5544 C   0  0  0  0  0  0  0  0  0  0  0  0
    2.4877    0.3879   -0.7979 H   0  0  0  0  0  0  0  0  0  0  0  0
    2.5125   -0.8275   -2.9699 H   0  0  0  0  0  0  0  0  0  0  0  0
   -0.1925    1.8678   -4.7835 H   0  0  0  0  0  0  0  0  0  0  0  0
   -0.6508    2.7730   -2.4951 H   0  0  0  0  0  0  0  0  0  0  0  0
    0.5009    1.9696   -0.2066 N   0  0  0  0  0  0  0  0  0  0  0  0
   -0.3896    2.8170   -0.1432 O   0  0  0  0  0  0  0  0  0  0  0  0
    1.0459    1.4404    0.7567 O   0  0  0  0  0  0  0  0  0  0  0  0
    1.6742    0.1641   -5.3319 N   0  0  0  0  0  0  0  0  0  0  0  0
    1.8891   -0.2951   -6.3503 N   0  0  0  0  0  0  0  0  0  0  0  0
    5.8011    2.1609   -3.7971 C   0  0  0  0  0  0  0  0  0  0  0  0
    6.5873    1.0889   -4.2114 C   0  0  0  0  0  0  0  0  0  0  0  0
    6.0762   -0.2099   -4.2076 C   0  0  0  0  0  0  0  0  0  0  0  0
    4.7512   -0.3810   -3.7909 C   0  0  0  0  0  0  0  0  0  0  0  0
    3.9301    0.6749   -3.3690 C   0  0  0  0  0  0  0  0  0  0  0  0
    4.4821    1.9781   -3.3720 C   0  0  0  0  0  0  0  0  0  0  0  0
    6.2010    3.1682   -3.7984 H   0  0  0  0  0  0  0  0  0  0  0  0
    7.6073    1.2703   -4.5379 H   0  0  0  0  0  0  0  0  0  0  0  0
    4.3355   -1.3870   -3.7943 H   0  0  0  0  0  0  0  0  0  0  0  0
    1.3405    3.1010   -3.1766 H   0  0  0  0  0  0  0  0  0  0  0  0
    3.6849    3.5080   -2.7790 S   0  0  0  0  0  0  0  0  0  0  0  0
    2.3906    3.6371   -3.6774 O   0  0  0  0  0  0  0  0  0  0  0  0
    4.5811    4.6040   -3.1388 O   0  0  0  0  0  0  0  0  0  0  0  0
    3.3305    3.3068   -1.3695 O   0  0  0  0  0  0  0  0  0  0  0  0
    6.9208   -1.3923   -4.6144 C   0  0  0  0  0  0  0  0  0  0  0  0
    7.6722   -1.1079   -5.3564 H   0  0  0  0  0  0  0  0  0  0  0  0
    7.4556   -1.8057   -3.7504 H   0  0  0  0  0  0  0  0  0  0  0  0
    6.3121   -2.1973   -5.0361 H   0  0  0  0  0  0  0  0  0  0  0  0
  1  6  2  0  0  0  0
  1  7  1  0  0  0  0
  2  8  1  1  0  0  0
  2  1  1  0  0  0  0
  3  4  2  0  0  0  0
  3  2  1  0  0  0  0
  4  5  1  0  0  0  0
  5 10  1  0  0  0  0
  5  6  1  0  0  0  0
  6 11  1  0  0  0  0
  9  4  1  0  0  0  0
 11 12  2  0  0  0  0
 11 13  2  0  0  0  0
 14  3  1  0  0  0  0
 15 14  1  0  0  0  0
 16 21  2  0  0  0  0
 17 18  2  0  0  0  0
 17 16  1  0  0  0  0
 18 19  1  0  0  0  0
 19 20  2  0  0  0  0
 20  2  1  0  0  0  0
 21 20  1  0  0  0  0
 21 26  1  0  0  0  0
 22 16  1  0  0  0  0
 23 17  1  0  0  0  0
 24 19  1  0  0  0  0
 26 29  2  0  0  0  0
 27 25  1  0  0  0  0
 27 26  1  0  0  0  0
 28 26  2  0  0  0  0
 30 18  1  0  0  0  0
 30 32  1  0  0  0  0
 31 30  1  0  0  0  0
 33 30  1  0  0  0  0
M  RAD  3   5   2  14   2  15   3
M  END
