Coordinates from ORCA-job p-NO2-Ph-N2-H-OTs-B3LYPG-6-31G_dp-scan-d09-49-n400
 OpenBabel08281820503D

 33 34  0  0  1  0  0  0  0  0999 V2000
    1.9764    0.7424   -1.6845 C   0  0  0  0  0  0  0  0  0  0  0  0
    2.4794    0.2903   -3.0362 C   0  0  1  0  0  0  0  0  0  0  0  0
    1.4697    0.6882   -4.1277 C   0  0  0  0  0  0  0  0  0  0  0  0
    0.3749    1.5758   -3.9005 C   0  0  0  0  0  0  0  0  0  0  0  0
    0.1270    2.0641   -2.6461 C   0  0  0  0  0  0  0  0  0  0  0  0
    0.8969    1.5206   -1.5342 C   0  0  0  0  0  0  0  0  0  0  0  0
    2.5259    0.4191   -0.8089 H   0  0  0  0  0  0  0  0  0  0  0  0
    2.5042   -0.8077   -2.9871 H   0  0  0  0  0  0  0  0  0  0  0  0
   -0.2193    1.9004   -4.7489 H   0  0  0  0  0  0  0  0  0  0  0  0
   -0.7115    2.7143   -2.4371 H   0  0  0  0  0  0  0  0  0  0  0  0
    0.4900    1.9111   -0.1733 N   0  0  0  0  0  0  0  0  0  0  0  0
   -0.4351    2.7181   -0.0846 O   0  0  0  0  0  0  0  0  0  0  0  0
    1.0806    1.4043    0.7754 O   0  0  0  0  0  0  0  0  0  0  0  0
    1.6791    0.2349   -5.3422 N   0  0  0  0  0  0  0  0  0  0  0  0
    1.8974   -0.1927   -6.3771 N   0  0  0  0  0  0  0  0  0  0  0  0
    5.8160    2.1575   -3.8135 C   0  0  0  0  0  0  0  0  0  0  0  0
    6.5995    1.0766   -4.2096 C   0  0  0  0  0  0  0  0  0  0  0  0
    6.0813   -0.2189   -4.1918 C   0  0  0  0  0  0  0  0  0  0  0  0
    4.7530   -0.3793   -3.7796 C   0  0  0  0  0  0  0  0  0  0  0  0
    3.9333    0.6832   -3.3746 C   0  0  0  0  0  0  0  0  0  0  0  0
    4.4945    1.9824   -3.3937 C   0  0  0  0  0  0  0  0  0  0  0  0
    6.2211    3.1626   -3.8265 H   0  0  0  0  0  0  0  0  0  0  0  0
    7.6216    1.2493   -4.5340 H   0  0  0  0  0  0  0  0  0  0  0  0
    4.3320   -1.3828   -3.7754 H   0  0  0  0  0  0  0  0  0  0  0  0
    1.4245    3.1530   -3.2653 H   0  0  0  0  0  0  0  0  0  0  0  0
    3.7021    3.5191   -2.8276 S   0  0  0  0  0  0  0  0  0  0  0  0
    2.4148    3.6604   -3.7676 O   0  0  0  0  0  0  0  0  0  0  0  0
    4.5972    4.6125   -3.1893 O   0  0  0  0  0  0  0  0  0  0  0  0
    3.2974    3.3394   -1.4312 O   0  0  0  0  0  0  0  0  0  0  0  0
    6.9207   -1.4105   -4.5815 C   0  0  0  0  0  0  0  0  0  0  0  0
    7.6919   -1.1340   -5.3058 H   0  0  0  0  0  0  0  0  0  0  0  0
    7.4300   -1.8317   -3.7061 H   0  0  0  0  0  0  0  0  0  0  0  0
    6.3116   -2.2073   -5.0182 H   0  0  0  0  0  0  0  0  0  0  0  0
  1  6  2  0  0  0  0
  1  7  1  0  0  0  0
  2  8  1  1  0  0  0
  2  1  1  0  0  0  0
  3  4  2  0  0  0  0
  3  2  1  0  0  0  0
  4  5  1  0  0  0  0
  5 10  1  0  0  0  0
  5  6  1  0  0  0  0
  6 11  1  0  0  0  0
  9  4  1  0  0  0  0
 11 12  2  0  0  0  0
 11 13  2  0  0  0  0
 14  3  1  0  0  0  0
 15 14  1  0  0  0  0
 16 21  2  0  0  0  0
 17 18  2  0  0  0  0
 17 16  1  0  0  0  0
 18 19  1  0  0  0  0
 19 24  1  0  0  0  0
 19 20  2  0  0  0  0
 20  2  1  0  0  0  0
 21 20  1  0  0  0  0
 21 26  1  0  0  0  0
 22 16  1  0  0  0  0
 23 17  1  0  0  0  0
 26 29  2  0  0  0  0
 27 25  1  0  0  0  0
 27 26  1  0  0  0  0
 28 26  2  0  0  0  0
 30 18  1  0  0  0  0
 30 32  1  0  0  0  0
 31 30  1  0  0  0  0
 33 30  1  0  0  0  0
M  RAD  3   5   2  14   2  15   3
M  END
