Coordinates from ORCA-job p-NO2-Ph-N2-H-OTs-B3LYPG-6-31G_dp-scan-d09-49-n400
 OpenBabel08281820503D

 33 35  0  0  1  0  0  0  0  0999 V2000
    1.9596    0.5259   -1.8163 C   0  0  0  0  0  0  0  0  0  0  0  0
    2.4244    0.2409   -3.2269 C   0  0  1  0  0  0  0  0  0  0  0  0
    1.5206    0.9491   -4.2126 C   0  0  1  0  0  0  0  0  0  0  0  0
    1.0133    2.2995   -3.8912 C   0  0  1  0  0  0  0  0  0  0  0  0
    0.4864    2.4694   -2.4726 C   0  0  0  0  0  0  0  0  0  0  0  0
    1.0798    1.4830   -1.5190 C   0  0  0  0  0  0  0  0  0  0  0  0
    2.3667   -0.0795   -1.0144 H   0  0  0  0  0  0  0  0  0  0  0  0
    2.3379   -0.8425   -3.3761 H   0  0  0  0  0  0  0  0  0  0  0  0
    0.2841    2.6336   -4.6301 H   0  0  0  0  0  0  0  0  0  0  0  0
   -0.6030    2.4955   -2.4100 H   0  0  0  0  0  0  0  0  0  0  0  0
    0.6776    1.6426   -0.1088 N   0  0  0  0  0  0  0  0  0  0  0  0
   -0.1399    2.5325    0.1246 O   0  0  0  0  0  0  0  0  0  0  0  0
    1.1562    0.8850    0.7327 O   0  0  0  0  0  0  0  0  0  0  0  0
    1.4075    0.4872   -5.4238 N   0  0  0  0  0  0  0  0  0  0  0  0
    1.2777    0.0432   -6.4705 N   0  0  0  0  0  0  0  0  0  0  0  0
    5.7110    2.1267   -4.0231 C   0  0  0  0  0  0  0  0  0  0  0  0
    6.5801    1.0534   -4.2104 C   0  0  0  0  0  0  0  0  0  0  0  0
    6.1419   -0.2596   -4.0260 C   0  0  0  0  0  0  0  0  0  0  0  0
    4.7979   -0.4605   -3.6793 C   0  0  0  0  0  0  0  0  0  0  0  0
    3.8999    0.5906   -3.4820 C   0  0  0  0  0  0  0  0  0  0  0  0
    4.3835    1.9050   -3.6516 C   0  0  0  0  0  0  0  0  0  0  0  0
    6.0545    3.1448   -4.1651 H   0  0  0  0  0  0  0  0  0  0  0  0
    7.6073    1.2461   -4.5053 H   0  0  0  0  0  0  0  0  0  0  0  0
    4.4329   -1.4797   -3.5707 H   0  0  0  0  0  0  0  0  0  0  0  0
    0.9181    3.4644   -2.3428 H   0  0  0  0  0  0  0  0  0  0  0  0
    3.4867    3.4216   -3.2351 S   0  0  0  0  0  0  0  0  0  0  0  0
    2.0261    3.3854   -3.9851 O   0  0  0  0  0  0  0  0  0  0  0  0
    4.1630    4.5367   -3.8821 O   0  0  0  0  0  0  0  0  0  0  0  0
    3.2787    3.4304   -1.7879 O   0  0  0  0  0  0  0  0  0  0  0  0
    7.0773   -1.4322   -4.1857 C   0  0  0  0  0  0  0  0  0  0  0  0
    7.9369   -1.1763   -4.8103 H   0  0  0  0  0  0  0  0  0  0  0  0
    7.4627   -1.7559   -3.2115 H   0  0  0  0  0  0  0  0  0  0  0  0
    6.5710   -2.2916   -4.6352 H   0  0  0  0  0  0  0  0  0  0  0  0
  1  6  2  0  0  0  0
  1  7  1  0  0  0  0
  2  8  1  6  0  0  0
  2  1  1  0  0  0  0
  3 14  1  6  0  0  0
  3  4  1  0  0  0  0
  3  2  1  0  0  0  0
  4  9  1  6  0  0  0
  4  5  1  0  0  0  0
  5 10  1  0  0  0  0
  5 25  1  0  0  0  0
  5  6  1  0  0  0  0
  6 11  1  0  0  0  0
 11 12  2  0  0  0  0
 11 13  2  0  0  0  0
 15 14  1  0  0  0  0
 16 21  2  0  0  0  0
 17 18  2  0  0  0  0
 17 16  1  0  0  0  0
 18 19  1  0  0  0  0
 19 24  1  0  0  0  0
 19 20  2  0  0  0  0
 20  2  1  0  0  0  0
 21 20  1  0  0  0  0
 21 26  1  0  0  0  0
 22 16  1  0  0  0  0
 23 17  1  0  0  0  0
 26 29  2  0  0  0  0
 27  4  1  0  0  0  0
 27 26  1  0  0  0  0
 28 26  2  0  0  0  0
 30 18  1  0  0  0  0
 30 32  1  0  0  0  0
 31 30  1  0  0  0  0
 33 30  1  0  0  0  0
M  RAD  3   3   2  14   2  15   3
M  END
