Coordinates from ORCA-job p-NO2-Ph-N2-H-OTs-B3LYPG-6-31G_dp-scan-d09-49-n400
 OpenBabel08281820503D

 33 34  0  0  1  0  0  0  0  0999 V2000
    1.9894    0.8246   -1.6718 C   0  0  0  0  0  0  0  0  0  0  0  0
    2.5214    0.3335   -2.9966 C   0  0  1  0  0  0  0  0  0  0  0  0
    1.5257    0.7253   -4.1016 C   0  0  0  0  0  0  0  0  0  0  0  0
    0.4500    1.5638   -3.9693 C   0  0  0  0  0  0  0  0  0  0  0  0
    0.2103    2.2409   -2.7074 C   0  0  0  0  0  0  0  0  0  0  0  0
    0.9049    1.5900   -1.5557 C   0  0  0  0  0  0  0  0  0  0  0  0
    2.5057    0.4917   -0.7795 H   0  0  0  0  0  0  0  0  0  0  0  0
    2.5044   -0.7639   -2.9314 H   0  0  0  0  0  0  0  0  0  0  0  0
   -0.1552    1.8138   -4.8364 H   0  0  0  0  0  0  0  0  0  0  0  0
   -0.8241    2.5252   -2.5221 H   0  0  0  0  0  0  0  0  0  0  0  0
    0.4404    1.9666   -0.2173 N   0  0  0  0  0  0  0  0  0  0  0  0
   -0.4844    2.7801   -0.1684 O   0  0  0  0  0  0  0  0  0  0  0  0
    0.9728    1.4399    0.7547 O   0  0  0  0  0  0  0  0  0  0  0  0
    1.7909    0.2485   -5.3359 N   0  0  0  0  0  0  0  0  0  0  0  0
    2.0718   -0.1945   -6.3305 N   0  0  0  0  0  0  0  0  0  0  0  0
    5.8358    2.1443   -3.8512 C   0  0  0  0  0  0  0  0  0  0  0  0
    6.6012    1.0567   -4.2633 C   0  0  0  0  0  0  0  0  0  0  0  0
    6.0788   -0.2401   -4.2299 C   0  0  0  0  0  0  0  0  0  0  0  0
    4.7606   -0.3925   -3.7892 C   0  0  0  0  0  0  0  0  0  0  0  0
    3.9680    0.6886   -3.3700 C   0  0  0  0  0  0  0  0  0  0  0  0
    4.5236    1.9861   -3.3966 C   0  0  0  0  0  0  0  0  0  0  0  0
    6.2398    3.1507   -3.8692 H   0  0  0  0  0  0  0  0  0  0  0  0
    7.6186    1.2189   -4.6093 H   0  0  0  0  0  0  0  0  0  0  0  0
    4.3357   -1.3952   -3.7616 H   0  0  0  0  0  0  0  0  0  0  0  0
    0.8478    3.1791   -2.9184 H   0  0  0  0  0  0  0  0  0  0  0  0
    3.7064    3.5070   -2.7907 S   0  0  0  0  0  0  0  0  0  0  0  0
    2.4031    3.5337   -3.5672 O   0  0  0  0  0  0  0  0  0  0  0  0
    4.6165    4.6031   -3.1548 O   0  0  0  0  0  0  0  0  0  0  0  0
    3.4975    3.2658   -1.3461 O   0  0  0  0  0  0  0  0  0  0  0  0
    6.9116   -1.4339   -4.6298 C   0  0  0  0  0  0  0  0  0  0  0  0
    7.5791   -1.1926   -5.4627 H   0  0  0  0  0  0  0  0  0  0  0  0
    7.5424   -1.7689   -3.7972 H   0  0  0  0  0  0  0  0  0  0  0  0
    6.2877   -2.2815   -4.9279 H   0  0  0  0  0  0  0  0  0  0  0  0
  1  6  2  0  0  0  0
  1  7  1  0  0  0  0
  2  8  1  1  0  0  0
  2  1  1  0  0  0  0
  3  4  2  0  0  0  0
  3  2  1  0  0  0  0
  4  5  1  0  0  0  0
  5 10  1  0  0  0  0
  5  6  1  0  0  0  0
  6 11  1  0  0  0  0
  9  4  1  0  0  0  0
 11 12  2  0  0  0  0
 11 13  2  0  0  0  0
 14  3  1  0  0  0  0
 15 14  1  0  0  0  0
 16 21  2  0  0  0  0
 17 18  2  0  0  0  0
 17 16  1  0  0  0  0
 18 19  1  0  0  0  0
 19 24  1  0  0  0  0
 19 20  2  0  0  0  0
 20  2  1  0  0  0  0
 21 20  1  0  0  0  0
 21 26  1  0  0  0  0
 22 16  1  0  0  0  0
 23 17  1  0  0  0  0
 25  5  1  0  0  0  0
 26 29  1  0  0  0  0
 27 26  2  0  0  0  0
 28 26  2  0  0  0  0
 30 18  1  0  0  0  0
 30 32  1  0  0  0  0
 31 30  1  0  0  0  0
 33 30  1  0  0  0  0
M  RAD  3  14   2  15   3  29   2
M  END
