Coordinates from ORCA-job p-NO2-Ph-N2-H-OTs-B3LYPG-6-31G_dp-scan-d09-49-n400
 OpenBabel08281820503D

 33 34  0  0  1  0  0  0  0  0999 V2000
    1.9674    0.7470   -1.6776 C   0  0  0  0  0  0  0  0  0  0  0  0
    2.4931    0.2723   -3.0116 C   0  0  1  0  0  0  0  0  0  0  0  0
    1.4796    0.6439   -4.1129 C   0  0  0  0  0  0  0  0  0  0  0  0
    0.4183    1.5362   -3.9501 C   0  0  0  0  0  0  0  0  0  0  0  0
    0.2654    2.2108   -2.7258 C   0  0  0  0  0  0  0  0  0  0  0  0
    0.9342    1.5842   -1.5665 C   0  0  0  0  0  0  0  0  0  0  0  0
    2.4627    0.3847   -0.7851 H   0  0  0  0  0  0  0  0  0  0  0  0
    2.5191   -0.8240   -2.9504 H   0  0  0  0  0  0  0  0  0  0  0  0
   -0.1900    1.8083   -4.8078 H   0  0  0  0  0  0  0  0  0  0  0  0
   -0.6470    2.7649   -2.5350 H   0  0  0  0  0  0  0  0  0  0  0  0
    0.4920    2.0036   -0.2301 N   0  0  0  0  0  0  0  0  0  0  0  0
   -0.3833    2.8684   -0.1862 O   0  0  0  0  0  0  0  0  0  0  0  0
    1.0005    1.4587    0.7445 O   0  0  0  0  0  0  0  0  0  0  0  0
    1.6899    0.1315   -5.3223 N   0  0  0  0  0  0  0  0  0  0  0  0
    1.9152   -0.3482   -6.3228 N   0  0  0  0  0  0  0  0  0  0  0  0
    5.8011    2.1617   -3.7973 C   0  0  0  0  0  0  0  0  0  0  0  0
    6.5838    1.0917   -4.2233 C   0  0  0  0  0  0  0  0  0  0  0  0
    6.0735   -0.2081   -4.2234 C   0  0  0  0  0  0  0  0  0  0  0  0
    4.7518   -0.3809   -3.7990 C   0  0  0  0  0  0  0  0  0  0  0  0
    3.9366    0.6767   -3.3665 C   0  0  0  0  0  0  0  0  0  0  0  0
    4.4848    1.9810   -3.3631 C   0  0  0  0  0  0  0  0  0  0  0  0
    6.1994    3.1700   -3.7937 H   0  0  0  0  0  0  0  0  0  0  0  0
    7.6024    1.2739   -4.5546 H   0  0  0  0  0  0  0  0  0  0  0  0
    4.3369   -1.3876   -3.8006 H   0  0  0  0  0  0  0  0  0  0  0  0
    1.2052    3.0815   -3.0793 H   0  0  0  0  0  0  0  0  0  0  0  0
    3.6800    3.5066   -2.7539 S   0  0  0  0  0  0  0  0  0  0  0  0
    2.3846    3.6016   -3.6029 O   0  0  0  0  0  0  0  0  0  0  0  0
    4.5858    4.6018   -3.1082 O   0  0  0  0  0  0  0  0  0  0  0  0
    3.3833    3.2841   -1.3298 O   0  0  0  0  0  0  0  0  0  0  0  0
    6.9179   -1.3875   -4.6399 C   0  0  0  0  0  0  0  0  0  0  0  0
    7.6389   -1.1072   -5.4133 H   0  0  0  0  0  0  0  0  0  0  0  0
    7.4894   -1.7793   -3.7895 H   0  0  0  0  0  0  0  0  0  0  0  0
    6.3054   -2.2075   -5.0260 H   0  0  0  0  0  0  0  0  0  0  0  0
  1  6  2  0  0  0  0
  1  7  1  0  0  0  0
  2  8  1  1  0  0  0
  2  1  1  0  0  0  0
  3  4  2  0  0  0  0
  3  2  1  0  0  0  0
  4  5  1  0  0  0  0
  5 10  1  0  0  0  0
  5  6  1  0  0  0  0
  6 11  1  0  0  0  0
  9  4  1  0  0  0  0
 11 12  2  0  0  0  0
 11 13  2  0  0  0  0
 14  3  1  0  0  0  0
 15 14  1  0  0  0  0
 16 22  1  0  0  0  0
 16 21  2  0  0  0  0
 17 16  1  0  0  0  0
 18 17  2  0  0  0  0
 18 19  1  0  0  0  0
 19 20  2  0  0  0  0
 20 21  1  0  0  0  0
 20  2  1  0  0  0  0
 21 26  1  0  0  0  0
 23 17  1  0  0  0  0
 24 19  1  0  0  0  0
 25  5  1  0  0  0  0
 26 29  1  0  0  0  0
 27 26  2  0  0  0  0
 28 26  2  0  0  0  0
 30 18  1  0  0  0  0
 30 32  1  0  0  0  0
 31 30  1  0  0  0  0
 33 30  1  0  0  0  0
M  RAD  3  14   2  15   3  29   2
M  END
