Coordinates from ORCA-job p-NO2-Ph-N2-H-OTs-B3LYPG-6-31G_dp-scan-d09-49-n400
 OpenBabel08281820503D

 33 35  0  0  1  0  0  0  0  0999 V2000
    2.0682    0.4192   -1.9578 C   0  0  0  0  0  0  0  0  0  0  0  0
    2.3753    0.3789   -3.4427 C   0  0  1  0  0  0  0  0  0  0  0  0
    1.4176    1.2867   -4.1693 C   0  0  1  0  0  0  0  0  0  0  0  0
    1.0698    2.5689   -3.5010 C   0  0  1  0  0  0  0  0  0  0  0  0
    0.4319    2.3408   -2.1399 C   0  0  0  0  0  0  0  0  0  0  0  0
    1.1871    1.2636   -1.4142 C   0  0  0  0  0  0  0  0  0  0  0  0
    2.5843   -0.2836   -1.3129 H   0  0  0  0  0  0  0  0  0  0  0  0
    2.2113   -0.6571   -3.7671 H   0  0  0  0  0  0  0  0  0  0  0  0
    0.4683    3.2173   -4.1392 H   0  0  0  0  0  0  0  0  0  0  0  0
   -0.6319    2.0995   -2.2317 H   0  0  0  0  0  0  0  0  0  0  0  0
    0.9258    1.1596    0.0337 N   0  0  0  0  0  0  0  0  0  0  0  0
    0.0607    1.9114    0.4837 O   0  0  0  0  0  0  0  0  0  0  0  0
    1.5525    0.3321    0.6930 O   0  0  0  0  0  0  0  0  0  0  0  0
    1.1165    1.0713   -5.4142 N   0  0  0  0  0  0  0  0  0  0  0  0
    0.8180    0.8484   -6.4949 N   0  0  0  0  0  0  0  0  0  0  0  0
    5.7865    2.0998   -4.1831 C   0  0  0  0  0  0  0  0  0  0  0  0
    6.6389    1.0043   -4.0971 C   0  0  0  0  0  0  0  0  0  0  0  0
    6.1355   -0.2702   -3.8140 C   0  0  0  0  0  0  0  0  0  0  0  0
    4.7549   -0.4029   -3.6260 C   0  0  0  0  0  0  0  0  0  0  0  0
    3.8671    0.6762   -3.7059 C   0  0  0  0  0  0  0  0  0  0  0  0
    4.4095    1.9454   -3.9930 C   0  0  0  0  0  0  0  0  0  0  0  0
    6.1829    3.0879   -4.3872 H   0  0  0  0  0  0  0  0  0  0  0  0
    7.7048    1.1438   -4.2534 H   0  0  0  0  0  0  0  0  0  0  0  0
    4.3493   -1.3891   -3.4095 H   0  0  0  0  0  0  0  0  0  0  0  0
    0.5281    3.2956   -1.6256 H   0  0  0  0  0  0  0  0  0  0  0  0
    3.4577    3.4659   -4.2131 S   0  0  0  0  0  0  0  0  0  0  0  0
    2.7787    3.4995   -5.5043 O   0  0  0  0  0  0  0  0  0  0  0  0
    4.2992    4.5716   -3.7815 O   0  0  0  0  0  0  0  0  0  0  0  0
    2.2916    3.3107   -3.0936 O   0  0  0  0  0  0  0  0  0  0  0  0
    7.0525   -1.4620   -3.6906 C   0  0  0  0  0  0  0  0  0  0  0  0
    7.9285   -1.3589   -4.3366 H   0  0  0  0  0  0  0  0  0  0  0  0
    7.4163   -1.5679   -2.6617 H   0  0  0  0  0  0  0  0  0  0  0  0
    6.5408   -2.3920   -3.9535 H   0  0  0  0  0  0  0  0  0  0  0  0
  1  6  2  0  0  0  0
  1  7  1  0  0  0  0
  2  8  1  6  0  0  0
  2  1  1  0  0  0  0
  3 14  1  6  0  0  0
  3  4  1  0  0  0  0
  3  2  1  0  0  0  0
  4  9  1  6  0  0  0
  4 29  1  0  0  0  0
  4  5  1  0  0  0  0
  5 25  1  0  0  0  0
  5  6  1  0  0  0  0
  6 11  1  0  0  0  0
 10  5  1  0  0  0  0
 11 12  2  0  0  0  0
 11 13  2  0  0  0  0
 15 14  1  0  0  0  0
 16 17  2  0  0  0  0
 16 21  1  0  0  0  0
 17 18  1  0  0  0  0
 18 30  1  0  0  0  0
 18 19  2  0  0  0  0
 19 24  1  0  0  0  0
 20 19  1  0  0  0  0
 20  2  1  0  0  0  0
 21 20  2  0  0  0  0
 22 16  1  0  0  0  0
 23 17  1  0  0  0  0
 26 21  1  0  0  0  0
 26 28  2  0  0  0  0
 26 29  1  0  0  0  0
 27 26  2  0  0  0  0
 30 32  1  0  0  0  0
 31 30  1  0  0  0  0
 33 30  1  0  0  0  0
M  RAD  3   3   2  14   2  15   3
M  END
