Coordinates from ORCA-job p-NO2-Ph-N2-H-OTs-B3LYPG-6-31G_dp-scan-d09-49-n400
 OpenBabel08281820503D

 33 35  0  0  1  0  0  0  0  0999 V2000
    2.0372    0.5719   -1.8446 C   0  0  0  0  0  0  0  0  0  0  0  0
    2.4249    0.2999   -3.2783 C   0  0  1  0  0  0  0  0  0  0  0  0
    1.4677    1.0143   -4.2110 C   0  0  1  0  0  0  0  0  0  0  0  0
    1.0487    2.4129   -3.8919 C   0  0  1  0  0  0  0  0  0  0  0  0
    0.4207    2.4193   -2.4621 C   0  0  0  0  0  0  0  0  0  0  0  0
    1.1459    1.5050   -1.5148 C   0  0  0  0  0  0  0  0  0  0  0  0
    2.5199   -0.0036   -1.0632 H   0  0  0  0  0  0  0  0  0  0  0  0
    2.3235   -0.7806   -3.4381 H   0  0  0  0  0  0  0  0  0  0  0  0
    0.2935    2.7643   -4.5955 H   0  0  0  0  0  0  0  0  0  0  0  0
   -0.5872    2.0112   -2.6242 H   0  0  0  0  0  0  0  0  0  0  0  0
    0.8050    1.6624   -0.0887 N   0  0  0  0  0  0  0  0  0  0  0  0
   -0.0905    2.4669    0.1746 O   0  0  0  0  0  0  0  0  0  0  0  0
    1.4025    0.9809    0.7409 O   0  0  0  0  0  0  0  0  0  0  0  0
    1.2694    0.5414   -5.4049 N   0  0  0  0  0  0  0  0  0  0  0  0
    1.0595    0.0915   -6.4371 N   0  0  0  0  0  0  0  0  0  0  0  0
    5.7914    2.1189   -3.9426 C   0  0  0  0  0  0  0  0  0  0  0  0
    6.6366    1.0253   -4.1165 C   0  0  0  0  0  0  0  0  0  0  0  0
    6.1476   -0.2780   -4.0004 C   0  0  0  0  0  0  0  0  0  0  0  0
    4.7835   -0.4449   -3.7244 C   0  0  0  0  0  0  0  0  0  0  0  0
    3.9074    0.6280   -3.5385 C   0  0  0  0  0  0  0  0  0  0  0  0
    4.4400    1.9296   -3.6463 C   0  0  0  0  0  0  0  0  0  0  0  0
    6.1700    3.1293   -4.0450 H   0  0  0  0  0  0  0  0  0  0  0  0
    7.6835    1.1933   -4.3518 H   0  0  0  0  0  0  0  0  0  0  0  0
    4.3848   -1.4551   -3.6581 H   0  0  0  0  0  0  0  0  0  0  0  0
    0.2321    3.3794   -1.9570 H   0  0  0  0  0  0  0  0  0  0  0  0
    3.5290    3.4619   -3.3383 S   0  0  0  0  0  0  0  0  0  0  0  0
    2.1746    3.3338   -4.2496 O   0  0  0  0  0  0  0  0  0  0  0  0
    4.2666    4.5484   -3.9651 O   0  0  0  0  0  0  0  0  0  0  0  0
    3.1591    3.5310   -1.9267 O   0  0  0  0  0  0  0  0  0  0  0  0
    7.0536   -1.4746   -4.1526 C   0  0  0  0  0  0  0  0  0  0  0  0
    7.9271   -1.2397   -4.7665 H   0  0  0  0  0  0  0  0  0  0  0  0
    7.4202   -1.8103   -3.1752 H   0  0  0  0  0  0  0  0  0  0  0  0
    6.5305   -2.3193   -4.6105 H   0  0  0  0  0  0  0  0  0  0  0  0
  1  6  2  0  0  0  0
  1  7  1  0  0  0  0
  2  8  1  6  0  0  0
  2  1  1  0  0  0  0
  3 14  1  6  0  0  0
  3  4  1  0  0  0  0
  3  2  1  0  0  0  0
  4  9  1  6  0  0  0
  4  5  1  0  0  0  0
  5 25  1  0  0  0  0
  5  6  1  0  0  0  0
  6 11  1  0  0  0  0
 10  5  1  0  0  0  0
 11 12  2  0  0  0  0
 11 13  2  0  0  0  0
 15 14  1  0  0  0  0
 16 21  2  0  0  0  0
 17 18  2  0  0  0  0
 17 16  1  0  0  0  0
 18 19  1  0  0  0  0
 19 24  1  0  0  0  0
 19 20  2  0  0  0  0
 20  2  1  0  0  0  0
 21 20  1  0  0  0  0
 21 26  1  0  0  0  0
 22 16  1  0  0  0  0
 23 17  1  0  0  0  0
 26 29  2  0  0  0  0
 27  4  1  0  0  0  0
 27 26  1  0  0  0  0
 28 26  2  0  0  0  0
 30 18  1  0  0  0  0
 30 32  1  0  0  0  0
 31 30  1  0  0  0  0
 33 30  1  0  0  0  0
M  RAD  3   3   2  14   2  15   3
M  END
