Coordinates from ORCA-job p-NO2-Ph-N2-H-OTs-B3LYPG-6-31G_dp-scan-d09-49-n400
 OpenBabel08281820503D

 33 34  0  0  1  0  0  0  0  0999 V2000
    1.9692    0.7558   -1.6762 C   0  0  0  0  0  0  0  0  0  0  0  0
    2.4973    0.2796   -3.0087 C   0  0  1  0  0  0  0  0  0  0  0  0
    1.4845    0.6516   -4.1105 C   0  0  0  0  0  0  0  0  0  0  0  0
    0.4211    1.5348   -3.9534 C   0  0  0  0  0  0  0  0  0  0  0  0
    0.2687    2.2235   -2.7280 C   0  0  0  0  0  0  0  0  0  0  0  0
    0.9324    1.5876   -1.5662 C   0  0  0  0  0  0  0  0  0  0  0  0
    2.4635    0.3932   -0.7833 H   0  0  0  0  0  0  0  0  0  0  0  0
    2.5189   -0.8169   -2.9470 H   0  0  0  0  0  0  0  0  0  0  0  0
   -0.1913    1.7979   -4.8111 H   0  0  0  0  0  0  0  0  0  0  0  0
   -0.6624    2.7464   -2.5367 H   0  0  0  0  0  0  0  0  0  0  0  0
    0.4840    2.0016   -0.2308 N   0  0  0  0  0  0  0  0  0  0  0  0
   -0.3952    2.8627   -0.1880 O   0  0  0  0  0  0  0  0  0  0  0  0
    0.9908    1.4560    0.7444 O   0  0  0  0  0  0  0  0  0  0  0  0
    1.6998    0.1387   -5.3224 N   0  0  0  0  0  0  0  0  0  0  0  0
    1.9314   -0.3403   -6.3201 N   0  0  0  0  0  0  0  0  0  0  0  0
    5.8055    2.1605   -3.8020 C   0  0  0  0  0  0  0  0  0  0  0  0
    6.5858    1.0887   -4.2280 C   0  0  0  0  0  0  0  0  0  0  0  0
    6.0738   -0.2107   -4.2258 C   0  0  0  0  0  0  0  0  0  0  0  0
    4.7527   -0.3811   -3.7993 C   0  0  0  0  0  0  0  0  0  0  0  0
    3.9406    0.6792   -3.3668 C   0  0  0  0  0  0  0  0  0  0  0  0
    4.4897    1.9827   -3.3652 C   0  0  0  0  0  0  0  0  0  0  0  0
    6.2047    3.1684   -3.7996 H   0  0  0  0  0  0  0  0  0  0  0  0
    7.6043    1.2687   -4.5610 H   0  0  0  0  0  0  0  0  0  0  0  0
    4.3365   -1.3874   -3.7981 H   0  0  0  0  0  0  0  0  0  0  0  0
    1.1633    3.0867   -3.0577 H   0  0  0  0  0  0  0  0  0  0  0  0
    3.6831    3.5081   -2.7556 S   0  0  0  0  0  0  0  0  0  0  0  0
    2.3891    3.5940   -3.5951 O   0  0  0  0  0  0  0  0  0  0  0  0
    4.5929    4.6023   -3.1073 O   0  0  0  0  0  0  0  0  0  0  0  0
    3.3977    3.2811   -1.3286 O   0  0  0  0  0  0  0  0  0  0  0  0
    6.9166   -1.3916   -4.6418 C   0  0  0  0  0  0  0  0  0  0  0  0
    7.6311   -1.1150   -5.4226 H   0  0  0  0  0  0  0  0  0  0  0  0
    7.4957   -1.7774   -3.7937 H   0  0  0  0  0  0  0  0  0  0  0  0
    6.3024   -2.2148   -5.0181 H   0  0  0  0  0  0  0  0  0  0  0  0
  1  6  2  0  0  0  0
  1  7  1  0  0  0  0
  2  8  1  1  0  0  0
  2  1  1  0  0  0  0
  3  4  2  0  0  0  0
  3  2  1  0  0  0  0
  4  5  1  0  0  0  0
  5 10  1  0  0  0  0
  5  6  1  0  0  0  0
  6 11  1  0  0  0  0
  9  4  1  0  0  0  0
 11 12  2  0  0  0  0
 11 13  2  0  0  0  0
 14  3  1  0  0  0  0
 15 14  1  0  0  0  0
 16 22  1  0  0  0  0
 16 21  2  0  0  0  0
 17 18  2  0  0  0  0
 17 16  1  0  0  0  0
 18 19  1  0  0  0  0
 19 24  1  0  0  0  0
 19 20  2  0  0  0  0
 20 21  1  0  0  0  0
 20  2  1  0  0  0  0
 21 26  1  0  0  0  0
 23 17  1  0  0  0  0
 25  5  1  0  0  0  0
 26 29  1  0  0  0  0
 27 26  2  0  0  0  0
 28 26  2  0  0  0  0
 30 18  1  0  0  0  0
 30 32  1  0  0  0  0
 31 30  1  0  0  0  0
 33 30  1  0  0  0  0
M  RAD  3  14   2  15   3  29   2
M  END
