Coordinates from ORCA-job p-NO2-Ph-N2-H-OTs-B3LYPG-6-31G_dp-scan-d09-49-n400
 OpenBabel08281820503D

 33 34  0  0  1  0  0  0  0  0999 V2000
    1.9665    0.7382   -1.6794 C   0  0  0  0  0  0  0  0  0  0  0  0
    2.4884    0.2663   -3.0160 C   0  0  1  0  0  0  0  0  0  0  0  0
    1.4746    0.6394   -4.1162 C   0  0  0  0  0  0  0  0  0  0  0  0
    0.4143    1.5405   -3.9446 C   0  0  0  0  0  0  0  0  0  0  0  0
    0.2548    2.1919   -2.7185 C   0  0  0  0  0  0  0  0  0  0  0  0
    0.9342    1.5772   -1.5645 C   0  0  0  0  0  0  0  0  0  0  0  0
    2.4661    0.3779   -0.7885 H   0  0  0  0  0  0  0  0  0  0  0  0
    2.5179   -0.8300   -2.9563 H   0  0  0  0  0  0  0  0  0  0  0  0
   -0.1884    1.8254   -4.8020 H   0  0  0  0  0  0  0  0  0  0  0  0
   -0.6353    2.7797   -2.5275 H   0  0  0  0  0  0  0  0  0  0  0  0
    0.4999    1.9997   -0.2257 N   0  0  0  0  0  0  0  0  0  0  0  0
   -0.3744    2.8650   -0.1780 O   0  0  0  0  0  0  0  0  0  0  0  0
    1.0150    1.4571    0.7466 O   0  0  0  0  0  0  0  0  0  0  0  0
    1.6807    0.1320   -5.3243 N   0  0  0  0  0  0  0  0  0  0  0  0
    1.9004   -0.3445   -6.3294 N   0  0  0  0  0  0  0  0  0  0  0  0
    5.7969    2.1626   -3.7954 C   0  0  0  0  0  0  0  0  0  0  0  0
    6.5824    1.0935   -4.2188 C   0  0  0  0  0  0  0  0  0  0  0  0
    6.0737   -0.2067   -4.2190 C   0  0  0  0  0  0  0  0  0  0  0  0
    4.7513   -0.3811   -3.7972 C   0  0  0  0  0  0  0  0  0  0  0  0
    3.9327    0.6744   -3.3671 C   0  0  0  0  0  0  0  0  0  0  0  0
    4.4800    1.9793   -3.3643 C   0  0  0  0  0  0  0  0  0  0  0  0
    6.1945    3.1711   -3.7924 H   0  0  0  0  0  0  0  0  0  0  0  0
    7.6012    1.2774   -4.5483 H   0  0  0  0  0  0  0  0  0  0  0  0
    4.3376   -1.3882   -3.8004 H   0  0  0  0  0  0  0  0  0  0  0  0
    1.2502    3.0795   -3.1060 H   0  0  0  0  0  0  0  0  0  0  0  0
    3.6771    3.5061   -2.7580 S   0  0  0  0  0  0  0  0  0  0  0  0
    2.3806    3.6124   -3.6195 O   0  0  0  0  0  0  0  0  0  0  0  0
    4.5794    4.6017   -3.1151 O   0  0  0  0  0  0  0  0  0  0  0  0
    3.3655    3.2899   -1.3376 O   0  0  0  0  0  0  0  0  0  0  0  0
    6.9199   -1.3855   -4.6334 C   0  0  0  0  0  0  0  0  0  0  0  0
    7.6494   -1.1025   -5.3978 H   0  0  0  0  0  0  0  0  0  0  0  0
    7.4816   -1.7832   -3.7792 H   0  0  0  0  0  0  0  0  0  0  0  0
    6.3095   -2.2019   -5.0303 H   0  0  0  0  0  0  0  0  0  0  0  0
  1  6  2  0  0  0  0
  1  7  1  0  0  0  0
  2  8  1  1  0  0  0
  2  1  1  0  0  0  0
  3  4  2  0  0  0  0
  3  2  1  0  0  0  0
  4  5  1  0  0  0  0
  5 10  1  0  0  0  0
  5  6  1  0  0  0  0
  6 11  1  0  0  0  0
  9  4  1  0  0  0  0
 11 12  2  0  0  0  0
 11 13  2  0  0  0  0
 14  3  1  0  0  0  0
 15 14  1  0  0  0  0
 16 22  1  0  0  0  0
 16 21  2  0  0  0  0
 17 16  1  0  0  0  0
 18 17  2  0  0  0  0
 18 19  1  0  0  0  0
 19 20  2  0  0  0  0
 20 21  1  0  0  0  0
 20  2  1  0  0  0  0
 21 26  1  0  0  0  0
 23 17  1  0  0  0  0
 24 19  1  0  0  0  0
 26 29  2  0  0  0  0
 27 25  1  0  0  0  0
 27 26  1  0  0  0  0
 28 26  2  0  0  0  0
 30 18  1  0  0  0  0
 30 32  1  0  0  0  0
 31 30  1  0  0  0  0
 33 30  1  0  0  0  0
M  RAD  3   5   2  14   2  15   3
M  END
