Coordinates from ORCA-job p-NO2-Ph-N2-H-OTs-B3LYPG-6-31G_dp-scan-d09-49-n400
 OpenBabel08281820503D

 33 35  0  0  1  0  0  0  0  0999 V2000
    2.0265    0.4445   -1.8832 C   0  0  0  0  0  0  0  0  0  0  0  0
    2.4004    0.3535   -3.3551 C   0  0  1  0  0  0  0  0  0  0  0  0
    1.4610    1.2210   -4.1489 C   0  0  1  0  0  0  0  0  0  0  0  0
    1.0989    2.5051   -3.5082 C   0  0  1  0  0  0  0  0  0  0  0  0
    0.3921    2.3516   -2.1861 C   0  0  0  0  0  0  0  0  0  0  0  0
    1.1064    1.2879   -1.3994 C   0  0  0  0  0  0  0  0  0  0  0  0
    2.5129   -0.2404   -1.1968 H   0  0  0  0  0  0  0  0  0  0  0  0
    2.2608   -0.6980   -3.6376 H   0  0  0  0  0  0  0  0  0  0  0  0
    0.5950    3.1947   -4.1825 H   0  0  0  0  0  0  0  0  0  0  0  0
   -0.6822    2.1742   -2.2754 H   0  0  0  0  0  0  0  0  0  0  0  0
    0.7723    1.2084    0.0337 N   0  0  0  0  0  0  0  0  0  0  0  0
   -0.1090    1.9735    0.4257 O   0  0  0  0  0  0  0  0  0  0  0  0
    1.3650    0.3941    0.7397 O   0  0  0  0  0  0  0  0  0  0  0  0
    1.2532    1.0053   -5.4125 N   0  0  0  0  0  0  0  0  0  0  0  0
    1.0337    0.7782   -6.5115 N   0  0  0  0  0  0  0  0  0  0  0  0
    5.7699    2.0870   -4.2723 C   0  0  0  0  0  0  0  0  0  0  0  0
    6.6297    0.9952   -4.2240 C   0  0  0  0  0  0  0  0  0  0  0  0
    6.1510   -0.2721   -3.8740 C   0  0  0  0  0  0  0  0  0  0  0  0
    4.7857   -0.4040   -3.5948 C   0  0  0  0  0  0  0  0  0  0  0  0
    3.8877    0.6688   -3.6406 C   0  0  0  0  0  0  0  0  0  0  0  0
    4.4092    1.9355   -3.9879 C   0  0  0  0  0  0  0  0  0  0  0  0
    6.1525    3.0728   -4.5120 H   0  0  0  0  0  0  0  0  0  0  0  0
    7.6817    1.1327   -4.4564 H   0  0  0  0  0  0  0  0  0  0  0  0
    4.3990   -1.3880   -3.3377 H   0  0  0  0  0  0  0  0  0  0  0  0
    0.5925    3.3567   -1.8174 H   0  0  0  0  0  0  0  0  0  0  0  0
    3.4565    3.4735   -4.0596 S   0  0  0  0  0  0  0  0  0  0  0  0
    2.6649    3.6536   -5.2701 O   0  0  0  0  0  0  0  0  0  0  0  0
    4.3256    4.5306   -3.5656 O   0  0  0  0  0  0  0  0  0  0  0  0
    2.3278    3.1762   -2.9567 O   0  0  0  0  0  0  0  0  0  0  0  0
    7.0790   -1.4579   -3.7827 C   0  0  0  0  0  0  0  0  0  0  0  0
    7.8805   -1.3943   -4.5244 H   0  0  0  0  0  0  0  0  0  0  0  0
    7.5531   -1.5056   -2.7948 H   0  0  0  0  0  0  0  0  0  0  0  0
    6.5449   -2.3997   -3.9349 H   0  0  0  0  0  0  0  0  0  0  0  0
  1  6  2  0  0  0  0
  1  7  1  0  0  0  0
  2  8  1  6  0  0  0
  2  1  1  0  0  0  0
  3 14  1  6  0  0  0
  3  4  1  0  0  0  0
  3  2  1  0  0  0  0
  4  9  1  6  0  0  0
  4 29  1  0  0  0  0
  4  5  1  0  0  0  0
  5 25  1  0  0  0  0
  5  6  1  0  0  0  0
  6 11  1  0  0  0  0
 10  5  1  0  0  0  0
 11 12  2  0  0  0  0
 11 13  2  0  0  0  0
 15 14  1  0  0  0  0
 16 17  2  0  0  0  0
 16 21  1  0  0  0  0
 17 18  1  0  0  0  0
 18 30  1  0  0  0  0
 18 19  2  0  0  0  0
 19 24  1  0  0  0  0
 20 19  1  0  0  0  0
 20  2  1  0  0  0  0
 21 20  2  0  0  0  0
 22 16  1  0  0  0  0
 23 17  1  0  0  0  0
 26 21  1  0  0  0  0
 26 28  2  0  0  0  0
 26 29  1  0  0  0  0
 27 26  2  0  0  0  0
 30 32  1  0  0  0  0
 31 30  1  0  0  0  0
 33 30  1  0  0  0  0
M  RAD  3   3   2  14   2  15   3
M  END
