Coordinates from ORCA-job p-NO2-Ph-N2-H-OTs-B3LYPG-6-31G_dp-scan-d09-49-n400
 OpenBabel08281820503D

 33 35  0  0  1  0  0  0  0  0999 V2000
    2.0666    0.4194   -1.9564 C   0  0  0  0  0  0  0  0  0  0  0  0
    2.3758    0.3783   -3.4408 C   0  0  1  0  0  0  0  0  0  0  0  0
    1.4185    1.2852   -4.1691 C   0  0  1  0  0  0  0  0  0  0  0  0
    1.0701    2.5672   -3.5011 C   0  0  1  0  0  0  0  0  0  0  0  0
    0.4301    2.3407   -2.1404 C   0  0  0  0  0  0  0  0  0  0  0  0
    1.1842    1.2633   -1.4139 C   0  0  0  0  0  0  0  0  0  0  0  0
    2.5819   -0.2831   -1.3104 H   0  0  0  0  0  0  0  0  0  0  0  0
    2.2127   -0.6582   -3.7644 H   0  0  0  0  0  0  0  0  0  0  0  0
    0.4715    3.2172   -4.1402 H   0  0  0  0  0  0  0  0  0  0  0  0
   -0.6342    2.1020   -2.2315 H   0  0  0  0  0  0  0  0  0  0  0  0
    0.9207    1.1589    0.0335 N   0  0  0  0  0  0  0  0  0  0  0  0
    0.0581    1.9138    0.4830 O   0  0  0  0  0  0  0  0  0  0  0  0
    1.5492    0.3340    0.6944 O   0  0  0  0  0  0  0  0  0  0  0  0
    1.1204    1.0704   -5.4148 N   0  0  0  0  0  0  0  0  0  0  0  0
    0.8242    0.8479   -6.4963 N   0  0  0  0  0  0  0  0  0  0  0  0
    5.7862    2.0994   -4.1855 C   0  0  0  0  0  0  0  0  0  0  0  0
    6.6388    1.0041   -4.1002 C   0  0  0  0  0  0  0  0  0  0  0  0
    6.1359   -0.2701   -3.8152 C   0  0  0  0  0  0  0  0  0  0  0  0
    4.7557   -0.4027   -3.6250 C   0  0  0  0  0  0  0  0  0  0  0  0
    3.8675    0.6762   -3.7042 C   0  0  0  0  0  0  0  0  0  0  0  0
    4.4095    1.9453   -3.9929 C   0  0  0  0  0  0  0  0  0  0  0  0
    6.1824    3.0875   -4.3906 H   0  0  0  0  0  0  0  0  0  0  0  0
    7.7045    1.1435   -4.2585 H   0  0  0  0  0  0  0  0  0  0  0  0
    4.3504   -1.3889   -3.4074 H   0  0  0  0  0  0  0  0  0  0  0  0
    0.5304    3.2969   -1.6294 H   0  0  0  0  0  0  0  0  0  0  0  0
    3.4576    3.4661   -4.2098 S   0  0  0  0  0  0  0  0  0  0  0  0
    2.7755    3.5025   -5.4996 O   0  0  0  0  0  0  0  0  0  0  0  0
    4.2999    4.5710   -3.7774 O   0  0  0  0  0  0  0  0  0  0  0  0
    2.2926    3.3069   -3.0897 O   0  0  0  0  0  0  0  0  0  0  0  0
    7.0532   -1.4619   -3.6925 C   0  0  0  0  0  0  0  0  0  0  0  0
    7.9269   -1.3602   -4.3418 H   0  0  0  0  0  0  0  0  0  0  0  0
    7.4208   -1.5654   -2.6646 H   0  0  0  0  0  0  0  0  0  0  0  0
    6.5404   -2.3924   -3.9514 H   0  0  0  0  0  0  0  0  0  0  0  0
  1  6  2  0  0  0  0
  1  7  1  0  0  0  0
  2  8  1  6  0  0  0
  2  1  1  0  0  0  0
  3 14  1  6  0  0  0
  3  4  1  0  0  0  0
  3  2  1  0  0  0  0
  4  9  1  6  0  0  0
  4 29  1  0  0  0  0
  4  5  1  0  0  0  0
  5 25  1  0  0  0  0
  5  6  1  0  0  0  0
  6 11  1  0  0  0  0
 10  5  1  0  0  0  0
 11 12  2  0  0  0  0
 11 13  2  0  0  0  0
 15 14  1  0  0  0  0
 16 17  2  0  0  0  0
 16 21  1  0  0  0  0
 17 18  1  0  0  0  0
 18 30  1  0  0  0  0
 18 19  2  0  0  0  0
 19 24  1  0  0  0  0
 20 19  1  0  0  0  0
 20  2  1  0  0  0  0
 21 20  2  0  0  0  0
 22 16  1  0  0  0  0
 23 17  1  0  0  0  0
 26 21  1  0  0  0  0
 26 28  2  0  0  0  0
 26 29  1  0  0  0  0
 27 26  2  0  0  0  0
 30 32  1  0  0  0  0
 31 30  1  0  0  0  0
 33 30  1  0  0  0  0
M  RAD  3   3   2  14   2  15   3
M  END
