Coordinates from ORCA-job p-NO2-Ph-N2-H-OTs-B3LYPG-6-31G_dp-scan-d09-49-n400
 OpenBabel08281820503D

 33 34  0  0  1  0  0  0  0  0999 V2000
    1.9670    0.7438   -1.6780 C   0  0  0  0  0  0  0  0  0  0  0  0
    2.4918    0.2702   -3.0128 C   0  0  1  0  0  0  0  0  0  0  0  0
    1.4781    0.6422   -4.1137 C   0  0  0  0  0  0  0  0  0  0  0  0
    0.4177    1.5373   -3.9487 C   0  0  0  0  0  0  0  0  0  0  0  0
    0.2645    2.2071   -2.7241 C   0  0  0  0  0  0  0  0  0  0  0  0
    0.9349    1.5825   -1.5660 C   0  0  0  0  0  0  0  0  0  0  0  0
    2.4628    0.3811   -0.7860 H   0  0  0  0  0  0  0  0  0  0  0  0
    2.5188   -0.8261   -2.9522 H   0  0  0  0  0  0  0  0  0  0  0  0
   -0.1891    1.8130   -4.8063 H   0  0  0  0  0  0  0  0  0  0  0  0
   -0.6418    2.7706   -2.5333 H   0  0  0  0  0  0  0  0  0  0  0  0
    0.4946    2.0027   -0.2290 N   0  0  0  0  0  0  0  0  0  0  0  0
   -0.3799    2.8682   -0.1843 O   0  0  0  0  0  0  0  0  0  0  0  0
    1.0041    1.4578    0.7450 O   0  0  0  0  0  0  0  0  0  0  0  0
    1.6869    0.1308   -5.3228 N   0  0  0  0  0  0  0  0  0  0  0  0
    1.9103   -0.3484   -6.3244 N   0  0  0  0  0  0  0  0  0  0  0  0
    5.7994    2.1621   -3.7969 C   0  0  0  0  0  0  0  0  0  0  0  0
    6.5830    1.0925   -4.2221 C   0  0  0  0  0  0  0  0  0  0  0  0
    6.0735   -0.2075   -4.2222 C   0  0  0  0  0  0  0  0  0  0  0  0
    4.7517   -0.3810   -3.7985 C   0  0  0  0  0  0  0  0  0  0  0  0
    3.9353    0.6760   -3.3667 C   0  0  0  0  0  0  0  0  0  0  0  0
    4.4829    1.9805   -3.3636 C   0  0  0  0  0  0  0  0  0  0  0  0
    6.1973    3.1705   -3.7935 H   0  0  0  0  0  0  0  0  0  0  0  0
    7.6016    1.2753   -4.5529 H   0  0  0  0  0  0  0  0  0  0  0  0
    4.3373   -1.3879   -3.8004 H   0  0  0  0  0  0  0  0  0  0  0  0
    1.2172    3.0799   -3.0859 H   0  0  0  0  0  0  0  0  0  0  0  0
    3.6785    3.5068   -2.7553 S   0  0  0  0  0  0  0  0  0  0  0  0
    2.3831    3.6055   -3.6075 O   0  0  0  0  0  0  0  0  0  0  0  0
    4.5842    4.6016   -3.1096 O   0  0  0  0  0  0  0  0  0  0  0  0
    3.3777    3.2857   -1.3322 O   0  0  0  0  0  0  0  0  0  0  0  0
    6.9187   -1.3867   -4.6380 C   0  0  0  0  0  0  0  0  0  0  0  0
    7.6419   -1.1056   -5.4090 H   0  0  0  0  0  0  0  0  0  0  0  0
    7.4875   -1.7799   -3.7865 H   0  0  0  0  0  0  0  0  0  0  0  0
    6.3068   -2.2058   -5.0270 H   0  0  0  0  0  0  0  0  0  0  0  0
  1  6  2  0  0  0  0
  1  7  1  0  0  0  0
  2  8  1  1  0  0  0
  2  1  1  0  0  0  0
  3  4  2  0  0  0  0
  3  2  1  0  0  0  0
  4  5  1  0  0  0  0
  5 10  1  0  0  0  0
  5  6  1  0  0  0  0
  6 11  1  0  0  0  0
  9  4  1  0  0  0  0
 11 12  2  0  0  0  0
 11 13  2  0  0  0  0
 14  3  1  0  0  0  0
 15 14  1  0  0  0  0
 16 22  1  0  0  0  0
 16 21  2  0  0  0  0
 17 16  1  0  0  0  0
 18 17  2  0  0  0  0
 18 19  1  0  0  0  0
 19 20  2  0  0  0  0
 20 21  1  0  0  0  0
 20  2  1  0  0  0  0
 21 26  1  0  0  0  0
 23 17  1  0  0  0  0
 24 19  1  0  0  0  0
 25  5  1  0  0  0  0
 26 29  1  0  0  0  0
 27 26  2  0  0  0  0
 28 26  2  0  0  0  0
 30 18  1  0  0  0  0
 30 32  1  0  0  0  0
 31 30  1  0  0  0  0
 33 30  1  0  0  0  0
M  RAD  3  14   2  15   3  29   2
M  END
