Coordinates from ORCA-job p-NO2-Ph-N2-H-OTs-B3LYPG-6-31G_dp-scan-d09-49-n400
 OpenBabel08281820503D

 33 34  0  0  1  0  0  0  0  0999 V2000
    2.0912    0.4903   -1.9330 C   0  0  0  0  0  0  0  0  0  0  0  0
    2.3860    0.4160   -3.4131 C   0  0  1  0  0  0  0  0  0  0  0  0
    1.3537    1.2466   -4.1550 C   0  0  0  0  0  0  0  0  0  0  0  0
    0.4690    2.1087   -3.6060 C   0  0  0  0  0  0  0  0  0  0  0  0
    0.2978    2.2450   -2.1395 C   0  0  0  0  0  0  0  0  0  0  0  0
    1.1628    1.2790   -1.3945 C   0  0  0  0  0  0  0  0  0  0  0  0
    2.6863   -0.1443   -1.2859 H   0  0  0  0  0  0  0  0  0  0  0  0
    2.2432   -0.6332   -3.7096 H   0  0  0  0  0  0  0  0  0  0  0  0
   -0.1268    2.7459   -4.2512 H   0  0  0  0  0  0  0  0  0  0  0  0
   -0.7562    2.1609   -1.8507 H   0  0  0  0  0  0  0  0  0  0  0  0
    0.9729    1.2477    0.0640 N   0  0  0  0  0  0  0  0  0  0  0  0
    0.1041    1.9965    0.5129 O   0  0  0  0  0  0  0  0  0  0  0  0
    1.6656    0.4860    0.7344 O   0  0  0  0  0  0  0  0  0  0  0  0
    1.4342    1.2207   -5.5239 N   0  0  0  0  0  0  0  0  0  0  0  0
    1.4779    1.0534   -6.6283 N   0  0  0  0  0  0  0  0  0  0  0  0
    5.8205    2.1109   -4.0591 C   0  0  0  0  0  0  0  0  0  0  0  0
    6.6441    0.9890   -4.0232 C   0  0  0  0  0  0  0  0  0  0  0  0
    6.1055   -0.2881   -3.8363 C   0  0  0  0  0  0  0  0  0  0  0  0
    4.7189   -0.3905   -3.6848 C   0  0  0  0  0  0  0  0  0  0  0  0
    3.8706    0.7262   -3.7020 C   0  0  0  0  0  0  0  0  0  0  0  0
    4.4374    2.0022   -3.8982 C   0  0  0  0  0  0  0  0  0  0  0  0
    6.2321    3.1018   -4.2167 H   0  0  0  0  0  0  0  0  0  0  0  0
    7.7169    1.1076   -4.1527 H   0  0  0  0  0  0  0  0  0  0  0  0
    4.2830   -1.3780   -3.5404 H   0  0  0  0  0  0  0  0  0  0  0  0
    0.6254    3.2731   -1.9366 H   0  0  0  0  0  0  0  0  0  0  0  0
    3.4777    3.5425   -4.0732 S   0  0  0  0  0  0  0  0  0  0  0  0
    2.6882    3.3151   -5.3256 O   0  0  0  0  0  0  0  0  0  0  0  0
    4.4604    4.6307   -4.1467 O   0  0  0  0  0  0  0  0  0  0  0  0
    2.5801    3.5633   -2.8790 O   0  0  0  0  0  0  0  0  0  0  0  0
    6.9877   -1.5120   -3.7786 C   0  0  0  0  0  0  0  0  0  0  0  0
    7.8587   -1.4051   -4.4314 H   0  0  0  0  0  0  0  0  0  0  0  0
    7.3627   -1.6791   -2.7618 H   0  0  0  0  0  0  0  0  0  0  0  0
    6.4467   -2.4141   -4.0790 H   0  0  0  0  0  0  0  0  0  0  0  0
  1  6  2  0  0  0  0
  1  7  1  0  0  0  0
  2  8  1  6  0  0  0
  2  1  1  0  0  0  0
  3  4  2  0  0  0  0
  3  2  1  0  0  0  0
  4  5  1  0  0  0  0
  5 25  1  0  0  0  0
  5 10  1  0  0  0  0
  5  6  1  0  0  0  0
  6 11  1  0  0  0  0
  9  4  1  0  0  0  0
 11 12  2  0  0  0  0
 11 13  2  0  0  0  0
 14  3  1  0  0  0  0
 15 14  1  0  0  0  0
 16 17  2  0  0  0  0
 16 21  1  0  0  0  0
 17 18  1  0  0  0  0
 18 30  1  0  0  0  0
 18 19  2  0  0  0  0
 19 24  1  0  0  0  0
 20 19  1  0  0  0  0
 20  2  1  0  0  0  0
 21 20  2  0  0  0  0
 22 16  1  0  0  0  0
 23 17  1  0  0  0  0
 26 21  1  0  0  0  0
 26 29  1  0  0  0  0
 27 26  2  0  0  0  0
 28 26  2  0  0  0  0
 30 32  1  0  0  0  0
 31 30  1  0  0  0  0
 33 30  1  0  0  0  0
M  RAD  3  14   2  15   3  29   2
M  END
