Coordinates from ORCA-job p-NO2-Ph-N2-H-OTs-B3LYPG-6-31G_dp-scan-d09-49-n400
 OpenBabel08281820503D

 33 35  0  0  1  0  0  0  0  0999 V2000
    2.0575    0.6031   -1.8411 C   0  0  0  0  0  0  0  0  0  0  0  0
    2.4283    0.3279   -3.2782 C   0  0  1  0  0  0  0  0  0  0  0  0
    1.4639    1.0421   -4.2057 C   0  0  1  0  0  0  0  0  0  0  0  0
    1.0519    2.4449   -3.8883 C   0  0  1  0  0  0  0  0  0  0  0  0
    0.3761    2.3915   -2.4544 C   0  0  0  0  0  0  0  0  0  0  0  0
    1.1452    1.5137   -1.5056 C   0  0  0  0  0  0  0  0  0  0  0  0
    2.5712    0.0498   -1.0636 H   0  0  0  0  0  0  0  0  0  0  0  0
    2.3197   -0.7526   -3.4344 H   0  0  0  0  0  0  0  0  0  0  0  0
    0.3035    2.8081   -4.5921 H   0  0  0  0  0  0  0  0  0  0  0  0
   -0.5610    1.8683   -2.6999 H   0  0  0  0  0  0  0  0  0  0  0  0
    0.8218    1.6700   -0.0745 N   0  0  0  0  0  0  0  0  0  0  0  0
   -0.1090    2.4302    0.2003 O   0  0  0  0  0  0  0  0  0  0  0  0
    1.4646    1.0246    0.7495 O   0  0  0  0  0  0  0  0  0  0  0  0
    1.2627    0.5701   -5.3991 N   0  0  0  0  0  0  0  0  0  0  0  0
    1.0494    0.1203   -6.4311 N   0  0  0  0  0  0  0  0  0  0  0  0
    5.8144    2.1146   -3.9375 C   0  0  0  0  0  0  0  0  0  0  0  0
    6.6491    1.0126   -4.1089 C   0  0  0  0  0  0  0  0  0  0  0  0
    6.1457   -0.2858   -3.9987 C   0  0  0  0  0  0  0  0  0  0  0  0
    4.7788   -0.4390   -3.7289 C   0  0  0  0  0  0  0  0  0  0  0  0
    3.9131    0.6429   -3.5450 C   0  0  0  0  0  0  0  0  0  0  0  0
    4.4597    1.9386   -3.6484 C   0  0  0  0  0  0  0  0  0  0  0  0
    6.2032    3.1214   -4.0374 H   0  0  0  0  0  0  0  0  0  0  0  0
    7.6990    1.1700   -4.3385 H   0  0  0  0  0  0  0  0  0  0  0  0
    4.3696   -1.4452   -3.6652 H   0  0  0  0  0  0  0  0  0  0  0  0
    0.0031    3.2720   -1.8840 H   0  0  0  0  0  0  0  0  0  0  0  0
    3.5522    3.4760   -3.3613 S   0  0  0  0  0  0  0  0  0  0  0  0
    2.2179    3.3323   -4.2971 O   0  0  0  0  0  0  0  0  0  0  0  0
    4.3060    4.5552   -3.9823 O   0  0  0  0  0  0  0  0  0  0  0  0
    3.1532    3.5552   -1.9583 O   0  0  0  0  0  0  0  0  0  0  0  0
    7.0398   -1.4914   -4.1502 C   0  0  0  0  0  0  0  0  0  0  0  0
    7.9153   -1.2655   -4.7646 H   0  0  0  0  0  0  0  0  0  0  0  0
    7.4037   -1.8299   -3.1727 H   0  0  0  0  0  0  0  0  0  0  0  0
    6.5083   -2.3312   -4.6073 H   0  0  0  0  0  0  0  0  0  0  0  0
  1  6  2  0  0  0  0
  1  7  1  0  0  0  0
  2  8  1  6  0  0  0
  2  1  1  0  0  0  0
  3 14  1  6  0  0  0
  3  4  1  0  0  0  0
  3  2  1  0  0  0  0
  4  9  1  6  0  0  0
  4  5  1  0  0  0  0
  5 25  1  0  0  0  0
  5  6  1  0  0  0  0
  6 11  1  0  0  0  0
 10  5  1  0  0  0  0
 11 12  2  0  0  0  0
 11 13  2  0  0  0  0
 15 14  1  0  0  0  0
 16 21  2  0  0  0  0
 17 18  2  0  0  0  0
 17 16  1  0  0  0  0
 18 19  1  0  0  0  0
 19 24  1  0  0  0  0
 19 20  2  0  0  0  0
 20  2  1  0  0  0  0
 21 20  1  0  0  0  0
 21 26  1  0  0  0  0
 22 16  1  0  0  0  0
 23 17  1  0  0  0  0
 26 29  2  0  0  0  0
 27  4  1  0  0  0  0
 27 26  1  0  0  0  0
 28 26  2  0  0  0  0
 30 18  1  0  0  0  0
 30 32  1  0  0  0  0
 31 30  1  0  0  0  0
 33 30  1  0  0  0  0
M  RAD  3   3   2  14   2  15   3
M  END
