Coordinates from ORCA-job p-NO2-Ph-N2-H-OTs-B3LYPG-6-31G_dp-scan-d09-49-n400
 OpenBabel08281820503D

 33 35  0  0  1  0  0  0  0  0999 V2000
    2.0747    0.4162   -1.9698 C   0  0  0  0  0  0  0  0  0  0  0  0
    2.3713    0.3839   -3.4564 C   0  0  1  0  0  0  0  0  0  0  0  0
    1.4107    1.2978   -4.1725 C   0  0  1  0  0  0  0  0  0  0  0  0
    1.0648    2.5794   -3.4991 C   0  0  1  0  0  0  0  0  0  0  0  0
    0.4364    2.3380   -2.1316 C   0  0  0  0  0  0  0  0  0  0  0  0
    1.2000    1.2601   -1.4160 C   0  0  0  0  0  0  0  0  0  0  0  0
    2.5958   -0.2893   -1.3319 H   0  0  0  0  0  0  0  0  0  0  0  0
    2.2036   -0.6496   -3.7870 H   0  0  0  0  0  0  0  0  0  0  0  0
    0.4471    3.2205   -4.1297 H   0  0  0  0  0  0  0  0  0  0  0  0
   -0.6236    2.0810   -2.2291 H   0  0  0  0  0  0  0  0  0  0  0  0
    0.9508    1.1506    0.0338 N   0  0  0  0  0  0  0  0  0  0  0  0
    0.0902    1.9013    0.4944 O   0  0  0  0  0  0  0  0  0  0  0  0
    1.5882    0.3257    0.6859 O   0  0  0  0  0  0  0  0  0  0  0  0
    1.0946    1.0828   -5.4137 N   0  0  0  0  0  0  0  0  0  0  0  0
    0.7845    0.8614   -6.4914 N   0  0  0  0  0  0  0  0  0  0  0  0
    5.7885    2.1017   -4.1703 C   0  0  0  0  0  0  0  0  0  0  0  0
    6.6394    1.0055   -4.0778 C   0  0  0  0  0  0  0  0  0  0  0  0
    6.1323   -0.2696   -3.8044 C   0  0  0  0  0  0  0  0  0  0  0  0
    4.7499   -0.4019   -3.6305 C   0  0  0  0  0  0  0  0  0  0  0  0
    3.8639    0.6783   -3.7163 C   0  0  0  0  0  0  0  0  0  0  0  0
    4.4096    1.9474   -3.9947 C   0  0  0  0  0  0  0  0  0  0  0  0
    6.1872    3.0899   -4.3694 H   0  0  0  0  0  0  0  0  0  0  0  0
    7.7070    1.1449   -4.2222 H   0  0  0  0  0  0  0  0  0  0  0  0
    4.3415   -1.3883   -3.4199 H   0  0  0  0  0  0  0  0  0  0  0  0
    0.5072    3.2813   -1.5904 H   0  0  0  0  0  0  0  0  0  0  0  0
    3.4602    3.4650   -4.2394 S   0  0  0  0  0  0  0  0  0  0  0  0
    2.8069    3.4773   -5.5454 O   0  0  0  0  0  0  0  0  0  0  0  0
    4.2967    4.5768   -3.8136 O   0  0  0  0  0  0  0  0  0  0  0  0
    2.2857    3.3318   -3.1194 O   0  0  0  0  0  0  0  0  0  0  0  0
    7.0470   -1.4628   -3.6752 C   0  0  0  0  0  0  0  0  0  0  0  0
    7.9356   -1.3531   -4.3026 H   0  0  0  0  0  0  0  0  0  0  0  0
    7.3901   -1.5795   -2.6404 H   0  0  0  0  0  0  0  0  0  0  0  0
    6.5407   -2.3899   -3.9580 H   0  0  0  0  0  0  0  0  0  0  0  0
  1  6  2  0  0  0  0
  1  7  1  0  0  0  0
  2  8  1  6  0  0  0
  2  1  1  0  0  0  0
  3 14  1  6  0  0  0
  3  4  1  0  0  0  0
  3  2  1  0  0  0  0
  4  9  1  6  0  0  0
  4 29  1  0  0  0  0
  4  5  1  0  0  0  0
  5 25  1  0  0  0  0
  5  6  1  0  0  0  0
  6 11  1  0  0  0  0
 10  5  1  0  0  0  0
 11 12  2  0  0  0  0
 11 13  2  0  0  0  0
 15 14  1  0  0  0  0
 16 17  2  0  0  0  0
 16 21  1  0  0  0  0
 17 18  1  0  0  0  0
 18 30  1  0  0  0  0
 18 19  2  0  0  0  0
 19 24  1  0  0  0  0
 20 19  1  0  0  0  0
 20  2  1  0  0  0  0
 21 20  2  0  0  0  0
 22 16  1  0  0  0  0
 23 17  1  0  0  0  0
 26 21  1  0  0  0  0
 26 28  2  0  0  0  0
 26 29  1  0  0  0  0
 27 26  2  0  0  0  0
 30 32  1  0  0  0  0
 31 30  1  0  0  0  0
 33 30  1  0  0  0  0
M  RAD  3   3   2  14   2  15   3
M  END
