Coordinates from ORCA-job p-NO2-Ph-N2-H-OTs-B3LYPG-6-31G_dp-scan-d09-49-n400
 OpenBabel08281820503D

 33 35  0  0  1  0  0  0  0  0999 V2000
    2.0555    0.4251   -1.9371 C   0  0  0  0  0  0  0  0  0  0  0  0
    2.3822    0.3711   -3.4184 C   0  0  1  0  0  0  0  0  0  0  0  0
    1.4297    1.2680   -4.1642 C   0  0  1  0  0  0  0  0  0  0  0  0
    1.0777    2.5506   -3.5033 C   0  0  1  0  0  0  0  0  0  0  0  0
    0.4201    2.3438   -2.1527 C   0  0  0  0  0  0  0  0  0  0  0  0
    1.1622    1.2686   -1.4105 C   0  0  0  0  0  0  0  0  0  0  0  0
    2.5629   -0.2730   -1.2801 H   0  0  0  0  0  0  0  0  0  0  0  0
    2.2255   -0.6695   -3.7315 H   0  0  0  0  0  0  0  0  0  0  0  0
    0.5054    3.2125   -4.1531 H   0  0  0  0  0  0  0  0  0  0  0  0
   -0.6485    2.1267   -2.2391 H   0  0  0  0  0  0  0  0  0  0  0  0
    0.8789    1.1708    0.0332 N   0  0  0  0  0  0  0  0  0  0  0  0
    0.0120    1.9298    0.4672 O   0  0  0  0  0  0  0  0  0  0  0  0
    1.4965    0.3476    0.7065 O   0  0  0  0  0  0  0  0  0  0  0  0
    1.1572    1.0539   -5.4158 N   0  0  0  0  0  0  0  0  0  0  0  0
    0.8812    0.8303   -6.5024 N   0  0  0  0  0  0  0  0  0  0  0  0
    5.7828    2.0961   -4.2075 C   0  0  0  0  0  0  0  0  0  0  0  0
    6.6375    1.0018   -4.1323 C   0  0  0  0  0  0  0  0  0  0  0  0
    6.1406   -0.2709   -3.8305 C   0  0  0  0  0  0  0  0  0  0  0  0
    4.7638   -0.4036   -3.6169 C   0  0  0  0  0  0  0  0  0  0  0  0
    3.8728    0.6737   -3.6871 C   0  0  0  0  0  0  0  0  0  0  0  0
    4.4097    1.9424   -3.9907 C   0  0  0  0  0  0  0  0  0  0  0  0
    6.1754    3.0838   -4.4214 H   0  0  0  0  0  0  0  0  0  0  0  0
    7.7000    1.1410   -4.3103 H   0  0  0  0  0  0  0  0  0  0  0  0
    4.3631   -1.3893   -3.3892 H   0  0  0  0  0  0  0  0  0  0  0  0
    0.5549    3.3156   -1.6821 H   0  0  0  0  0  0  0  0  0  0  0  0
    3.4556    3.4678   -4.1687 S   0  0  0  0  0  0  0  0  0  0  0  0
    2.7378    3.5397   -5.4365 O   0  0  0  0  0  0  0  0  0  0  0  0
    4.3055    4.5619   -3.7244 O   0  0  0  0  0  0  0  0  0  0  0  0
    2.3024    3.2719   -3.0502 O   0  0  0  0  0  0  0  0  0  0  0  0
    7.0612   -1.4609   -3.7168 C   0  0  0  0  0  0  0  0  0  0  0  0
    7.9109   -1.3733   -4.3996 H   0  0  0  0  0  0  0  0  0  0  0  0
    7.4666   -1.5433   -2.7012 H   0  0  0  0  0  0  0  0  0  0  0  0
    6.5392   -2.3960   -3.9374 H   0  0  0  0  0  0  0  0  0  0  0  0
  1  6  2  0  0  0  0
  1  7  1  0  0  0  0
  2  8  1  6  0  0  0
  2  1  1  0  0  0  0
  3 14  1  6  0  0  0
  3  4  1  0  0  0  0
  3  2  1  0  0  0  0
  4  9  1  6  0  0  0
  4 29  1  0  0  0  0
  4  5  1  0  0  0  0
  5 25  1  0  0  0  0
  5  6  1  0  0  0  0
  6 11  1  0  0  0  0
 10  5  1  0  0  0  0
 11 12  2  0  0  0  0
 11 13  2  0  0  0  0
 15 14  1  0  0  0  0
 16 17  2  0  0  0  0
 16 21  1  0  0  0  0
 17 18  1  0  0  0  0
 18 30  1  0  0  0  0
 18 19  2  0  0  0  0
 19 24  1  0  0  0  0
 20 19  1  0  0  0  0
 20  2  1  0  0  0  0
 21 20  2  0  0  0  0
 22 16  1  0  0  0  0
 23 17  1  0  0  0  0
 26 21  1  0  0  0  0
 26 28  2  0  0  0  0
 26 29  1  0  0  0  0
 27 26  2  0  0  0  0
 30 32  1  0  0  0  0
 31 30  1  0  0  0  0
 33 30  1  0  0  0  0
M  RAD  3   3   2  14   2  15   3
M  END
