Coordinates from ORCA-job p-NO2-Ph-N2-H-OTs-B3LYPG-6-31G_dp-scan-d09-49-n400
 OpenBabel08281820503D

 33 35  0  0  1  0  0  0  0  0999 V2000
    2.0362    0.4379   -1.9013 C   0  0  0  0  0  0  0  0  0  0  0  0
    2.3943    0.3594   -3.3764 C   0  0  1  0  0  0  0  0  0  0  0  0
    1.4503    1.2369   -4.1541 C   0  0  1  0  0  0  0  0  0  0  0  0
    1.0916    2.5206   -3.5066 C   0  0  1  0  0  0  0  0  0  0  0  0
    0.4011    2.3489   -2.1748 C   0  0  0  0  0  0  0  0  0  0  0  0
    1.1244    1.2808   -1.4032 C   0  0  0  0  0  0  0  0  0  0  0  0
    2.5299   -0.2514   -1.2246 H   0  0  0  0  0  0  0  0  0  0  0  0
    2.2489   -0.6886   -3.6692 H   0  0  0  0  0  0  0  0  0  0  0  0
    0.5653    3.2018   -4.1733 H   0  0  0  0  0  0  0  0  0  0  0  0
   -0.6719    2.1602   -2.2615 H   0  0  0  0  0  0  0  0  0  0  0  0
    0.8068    1.1949    0.0336 N   0  0  0  0  0  0  0  0  0  0  0  0
   -0.0701    1.9579    0.4395 O   0  0  0  0  0  0  0  0  0  0  0  0
    1.4076    0.3773    0.7288 O   0  0  0  0  0  0  0  0  0  0  0  0
    1.2224    1.0229   -5.4146 N   0  0  0  0  0  0  0  0  0  0  0  0
    0.9833    0.7968   -6.5096 N   0  0  0  0  0  0  0  0  0  0  0  0
    5.7750    2.0900   -4.2499 C   0  0  0  0  0  0  0  0  0  0  0  0
    6.6331    0.9973   -4.1927 C   0  0  0  0  0  0  0  0  0  0  0  0
    6.1478   -0.2719   -3.8592 C   0  0  0  0  0  0  0  0  0  0  0  0
    4.7784   -0.4041   -3.6021 C   0  0  0  0  0  0  0  0  0  0  0  0
    3.8827    0.6703   -3.6561 C   0  0  0  0  0  0  0  0  0  0  0  0
    4.4097    1.9377   -3.9883 C   0  0  0  0  0  0  0  0  0  0  0  0
    6.1611    3.0765   -4.4807 H   0  0  0  0  0  0  0  0  0  0  0  0
    7.6890    1.1355   -4.4069 H   0  0  0  0  0  0  0  0  0  0  0  0
    4.3868   -1.3887   -3.3550 H   0  0  0  0  0  0  0  0  0  0  0  0
    0.5823    3.3438   -1.7725 H   0  0  0  0  0  0  0  0  0  0  0  0
    3.4555    3.4714   -4.0961 S   0  0  0  0  0  0  0  0  0  0  0  0
    2.6857    3.6132   -5.3260 O   0  0  0  0  0  0  0  0  0  0  0  0
    4.3183    4.5424   -3.6215 O   0  0  0  0  0  0  0  0  0  0  0  0
    2.3195    3.2085   -2.9860 O   0  0  0  0  0  0  0  0  0  0  0  0
    7.0735   -1.4591   -3.7608 C   0  0  0  0  0  0  0  0  0  0  0  0
    7.8874   -1.3906   -4.4883 H   0  0  0  0  0  0  0  0  0  0  0  0
    7.5307   -1.5144   -2.7655 H   0  0  0  0  0  0  0  0  0  0  0  0
    6.5415   -2.3994   -3.9292 H   0  0  0  0  0  0  0  0  0  0  0  0
  1  6  2  0  0  0  0
  1  7  1  0  0  0  0
  2  8  1  6  0  0  0
  2  1  1  0  0  0  0
  3 14  1  6  0  0  0
  3  4  1  0  0  0  0
  3  2  1  0  0  0  0
  4  9  1  6  0  0  0
  4 29  1  0  0  0  0
  4  5  1  0  0  0  0
  5 25  1  0  0  0  0
  5  6  1  0  0  0  0
  6 11  1  0  0  0  0
 10  5  1  0  0  0  0
 11 12  2  0  0  0  0
 11 13  2  0  0  0  0
 15 14  1  0  0  0  0
 16 17  2  0  0  0  0
 16 21  1  0  0  0  0
 17 18  1  0  0  0  0
 18 30  1  0  0  0  0
 18 19  2  0  0  0  0
 19 24  1  0  0  0  0
 20 19  1  0  0  0  0
 20  2  1  0  0  0  0
 21 20  2  0  0  0  0
 22 16  1  0  0  0  0
 23 17  1  0  0  0  0
 26 21  1  0  0  0  0
 26 28  2  0  0  0  0
 26 29  1  0  0  0  0
 27 26  2  0  0  0  0
 30 32  1  0  0  0  0
 31 30  1  0  0  0  0
 33 30  1  0  0  0  0
M  RAD  3   3   2  14   2  15   3
M  END
