Coordinates from ORCA-job p-NO2-Ph-N2-H-OTs-B3LYPG-6-31G_dp-scan-d09-49-n400
 OpenBabel08281820503D

 33 35  0  0  1  0  0  0  0  0999 V2000
    2.0981    0.4140   -2.0028 C   0  0  0  0  0  0  0  0  0  0  0  0
    2.3597    0.4025   -3.4950 C   0  0  1  0  0  0  0  0  0  0  0  0
    1.3915    1.3346   -4.1803 C   0  0  1  0  0  0  0  0  0  0  0  0
    1.0494    2.6143   -3.4924 C   0  0  1  0  0  0  0  0  0  0  0  0
    0.4442    2.3256   -2.1092 C   0  0  0  0  0  0  0  0  0  0  0  0
    1.2417    1.2553   -1.4195 C   0  0  0  0  0  0  0  0  0  0  0  0
    2.6395   -0.2948   -1.3861 H   0  0  0  0  0  0  0  0  0  0  0  0
    2.1779   -0.6233   -3.8420 H   0  0  0  0  0  0  0  0  0  0  0  0
    0.3802    3.2295   -4.0977 H   0  0  0  0  0  0  0  0  0  0  0  0
   -0.5938    1.9984   -2.2457 H   0  0  0  0  0  0  0  0  0  0  0  0
    1.0341    1.1335    0.0367 N   0  0  0  0  0  0  0  0  0  0  0  0
    0.1723    1.8644    0.5268 O   0  0  0  0  0  0  0  0  0  0  0  0
    1.7042    0.3167    0.6653 O   0  0  0  0  0  0  0  0  0  0  0  0
    1.0299    1.1196   -5.4091 N   0  0  0  0  0  0  0  0  0  0  0  0
    0.6849    0.9016   -6.4769 N   0  0  0  0  0  0  0  0  0  0  0  0
    5.7948    2.1064   -4.1284 C   0  0  0  0  0  0  0  0  0  0  0  0
    6.6393    1.0070   -4.0179 C   0  0  0  0  0  0  0  0  0  0  0  0
    6.1205   -0.2700   -3.7764 C   0  0  0  0  0  0  0  0  0  0  0  0
    4.7334   -0.3997   -3.6452 C   0  0  0  0  0  0  0  0  0  0  0  0
    3.8545    0.6851   -3.7471 C   0  0  0  0  0  0  0  0  0  0  0  0
    4.4104    1.9531   -3.9982 C   0  0  0  0  0  0  0  0  0  0  0  0
    6.2008    3.0948   -4.3112 H   0  0  0  0  0  0  0  0  0  0  0  0
    7.7115    1.1451   -4.1257 H   0  0  0  0  0  0  0  0  0  0  0  0
    4.3159   -1.3862   -3.4533 H   0  0  0  0  0  0  0  0  0  0  0  0
    0.4003    3.2198   -1.4780 H   0  0  0  0  0  0  0  0  0  0  0  0
    3.4745    3.4636   -4.3194 S   0  0  0  0  0  0  0  0  0  0  0  0
    2.9222    3.4200   -5.6744 O   0  0  0  0  0  0  0  0  0  0  0  0
    4.2930    4.5901   -3.8964 O   0  0  0  0  0  0  0  0  0  0  0  0
    2.2645    3.4011   -3.2074 O   0  0  0  0  0  0  0  0  0  0  0  0
    7.0276   -1.4674   -3.6333 C   0  0  0  0  0  0  0  0  0  0  0  0
    7.9343   -1.3542   -4.2334 H   0  0  0  0  0  0  0  0  0  0  0  0
    7.3403   -1.5961   -2.5902 H   0  0  0  0  0  0  0  0  0  0  0  0
    6.5270   -2.3897   -3.9407 H   0  0  0  0  0  0  0  0  0  0  0  0
  1  6  2  0  0  0  0
  1  7  1  0  0  0  0
  2  8  1  6  0  0  0
  2  1  1  0  0  0  0
  3 14  1  6  0  0  0
  3  2  1  0  0  0  0
  3  4  1  0  0  0  0
  4  9  1  6  0  0  0
  4 29  1  0  0  0  0
  4  5  1  0  0  0  0
  5 25  1  0  0  0  0
  5  6  1  0  0  0  0
  6 11  1  0  0  0  0
 10  5  1  0  0  0  0
 11 12  2  0  0  0  0
 11 13  2  0  0  0  0
 15 14  1  0  0  0  0
 16 17  2  0  0  0  0
 16 21  1  0  0  0  0
 17 18  1  0  0  0  0
 18 19  2  0  0  0  0
 18 30  1  0  0  0  0
 19 24  1  0  0  0  0
 20 19  1  0  0  0  0
 20  2  1  0  0  0  0
 21 20  2  0  0  0  0
 22 16  1  0  0  0  0
 23 17  1  0  0  0  0
 26 21  1  0  0  0  0
 26 28  2  0  0  0  0
 26 29  1  0  0  0  0
 27 26  2  0  0  0  0
 30 32  1  0  0  0  0
 31 30  1  0  0  0  0
 33 30  1  0  0  0  0
M  RAD  3   3   2  14   2  15   3
M  END
