Coordinates from ORCA-job p-NO2-Ph-N2-H-OTs-B3LYPG-6-31G_dp-scan-d09-49-n400
 OpenBabel08281820503D

 33 34  0  0  1  0  0  0  0  0999 V2000
    1.9790    0.7918   -1.6734 C   0  0  0  0  0  0  0  0  0  0  0  0
    2.5106    0.3089   -3.0019 C   0  0  1  0  0  0  0  0  0  0  0  0
    1.5033    0.6871   -4.1047 C   0  0  0  0  0  0  0  0  0  0  0  0
    0.4291    1.5397   -3.9610 C   0  0  0  0  0  0  0  0  0  0  0  0
    0.2486    2.2421   -2.7221 C   0  0  0  0  0  0  0  0  0  0  0  0
    0.9190    1.5919   -1.5614 C   0  0  0  0  0  0  0  0  0  0  0  0
    2.4818    0.4403   -0.7806 H   0  0  0  0  0  0  0  0  0  0  0  0
    2.5138   -0.7882   -2.9379 H   0  0  0  0  0  0  0  0  0  0  0  0
   -0.1885    1.7839   -4.8208 H   0  0  0  0  0  0  0  0  0  0  0  0
   -0.7389    2.6528   -2.5302 H   0  0  0  0  0  0  0  0  0  0  0  0
    0.4585    1.9851   -0.2255 N   0  0  0  0  0  0  0  0  0  0  0  0
   -0.4429    2.8238   -0.1806 O   0  0  0  0  0  0  0  0  0  0  0  0
    0.9743    1.4458    0.7485 O   0  0  0  0  0  0  0  0  0  0  0  0
    1.7413    0.1856   -5.3273 N   0  0  0  0  0  0  0  0  0  0  0  0
    1.9976   -0.2797   -6.3212 N   0  0  0  0  0  0  0  0  0  0  0  0
    5.8235    2.1535   -3.8230 C   0  0  0  0  0  0  0  0  0  0  0  0
    6.5952    1.0738   -4.2443 C   0  0  0  0  0  0  0  0  0  0  0  0
    6.0765   -0.2238   -4.2298 C   0  0  0  0  0  0  0  0  0  0  0  0
    4.7564   -0.3845   -3.7969 C   0  0  0  0  0  0  0  0  0  0  0  0
    3.9553    0.6866   -3.3690 C   0  0  0  0  0  0  0  0  0  0  0  0
    4.5091    1.9865   -3.3783 C   0  0  0  0  0  0  0  0  0  0  0  0
    6.2261    3.1604   -3.8284 H   0  0  0  0  0  0  0  0  0  0  0  0
    7.6136    1.2445   -4.5831 H   0  0  0  0  0  0  0  0  0  0  0  0
    4.3350   -1.3888   -3.7841 H   0  0  0  0  0  0  0  0  0  0  0  0
    1.0144    3.1252   -2.9910 H   0  0  0  0  0  0  0  0  0  0  0  0
    3.6965    3.5102   -2.7713 S   0  0  0  0  0  0  0  0  0  0  0  0
    2.4028    3.5645   -3.5823 O   0  0  0  0  0  0  0  0  0  0  0  0
    4.6115    4.6038   -3.1225 O   0  0  0  0  0  0  0  0  0  0  0  0
    3.4463    3.2739   -1.3354 O   0  0  0  0  0  0  0  0  0  0  0  0
    6.9133   -1.4112   -4.6399 C   0  0  0  0  0  0  0  0  0  0  0  0
    7.6084   -1.1495   -5.4433 H   0  0  0  0  0  0  0  0  0  0  0  0
    7.5144   -1.7766   -3.7981 H   0  0  0  0  0  0  0  0  0  0  0  0
    6.2935   -2.2444   -4.9836 H   0  0  0  0  0  0  0  0  0  0  0  0
  1  6  2  0  0  0  0
  1  7  1  0  0  0  0
  2  8  1  1  0  0  0
  2  1  1  0  0  0  0
  3  4  2  0  0  0  0
  3  2  1  0  0  0  0
  4  5  1  0  0  0  0
  5 10  1  0  0  0  0
  5  6  1  0  0  0  0
  6 11  1  0  0  0  0
  9  4  1  0  0  0  0
 11 12  2  0  0  0  0
 11 13  2  0  0  0  0
 14  3  1  0  0  0  0
 15 14  1  0  0  0  0
 16 21  2  0  0  0  0
 17 18  2  0  0  0  0
 17 16  1  0  0  0  0
 18 19  1  0  0  0  0
 19 24  1  0  0  0  0
 19 20  2  0  0  0  0
 20  2  1  0  0  0  0
 21 20  1  0  0  0  0
 21 26  1  0  0  0  0
 22 16  1  0  0  0  0
 23 17  1  0  0  0  0
 25  5  1  0  0  0  0
 26 29  1  0  0  0  0
 27 26  2  0  0  0  0
 28 26  2  0  0  0  0
 30 18  1  0  0  0  0
 30 32  1  0  0  0  0
 31 30  1  0  0  0  0
 33 30  1  0  0  0  0
M  RAD  3  14   2  15   3  29   2
M  END
