Coordinates from ORCA-job p-NO2-Ph-N2-H-OTs-B3LYPG-6-31G_dp-scan-d09-49-n400
 OpenBabel08281820503D

 33 35  0  0  1  0  0  0  0  0999 V2000
    2.0722    0.6291   -1.8380 C   0  0  0  0  0  0  0  0  0  0  0  0
    2.4314    0.3536   -3.2778 C   0  0  1  0  0  0  0  0  0  0  0  0
    1.4619    1.0684   -4.2014 C   0  0  1  0  0  0  0  0  0  0  0  0
    1.0485    2.4697   -3.8829 C   0  0  1  0  0  0  0  0  0  0  0  0
    0.3343    2.3663   -2.4398 C   0  0  0  0  0  0  0  0  0  0  0  0
    1.1385    1.5153   -1.4955 C   0  0  0  0  0  0  0  0  0  0  0  0
    2.6112    0.0939   -1.0650 H   0  0  0  0  0  0  0  0  0  0  0  0
    2.3165   -0.7269   -3.4316 H   0  0  0  0  0  0  0  0  0  0  0  0
    0.3070    2.8445   -4.5866 H   0  0  0  0  0  0  0  0  0  0  0  0
   -0.5399    1.7710   -2.7477 H   0  0  0  0  0  0  0  0  0  0  0  0
    0.8273    1.6642   -0.0600 N   0  0  0  0  0  0  0  0  0  0  0  0
   -0.1311    2.3852    0.2266 O   0  0  0  0  0  0  0  0  0  0  0  0
    1.5105    1.0535    0.7575 O   0  0  0  0  0  0  0  0  0  0  0  0
    1.2657    0.6008   -5.3977 N   0  0  0  0  0  0  0  0  0  0  0  0
    1.0564    0.1541   -6.4317 N   0  0  0  0  0  0  0  0  0  0  0  0
    5.8323    2.1111   -3.9438 C   0  0  0  0  0  0  0  0  0  0  0  0
    6.6583    1.0015   -4.1086 C   0  0  0  0  0  0  0  0  0  0  0  0
    6.1435   -0.2922   -3.9959 C   0  0  0  0  0  0  0  0  0  0  0  0
    4.7747   -0.4329   -3.7289 C   0  0  0  0  0  0  0  0  0  0  0  0
    3.9178    0.6572   -3.5511 C   0  0  0  0  0  0  0  0  0  0  0  0
    4.4755    1.9475   -3.6582 C   0  0  0  0  0  0  0  0  0  0  0  0
    6.2292    3.1144   -4.0465 H   0  0  0  0  0  0  0  0  0  0  0  0
    7.7102    1.1491   -4.3355 H   0  0  0  0  0  0  0  0  0  0  0  0
    4.3570   -1.4354   -3.6620 H   0  0  0  0  0  0  0  0  0  0  0  0
   -0.1656    3.1667   -1.8216 H   0  0  0  0  0  0  0  0  0  0  0  0
    3.5729    3.4904   -3.3889 S   0  0  0  0  0  0  0  0  0  0  0  0
    2.2534    3.3380   -4.3405 O   0  0  0  0  0  0  0  0  0  0  0  0
    4.3418    4.5627   -4.0041 O   0  0  0  0  0  0  0  0  0  0  0  0
    3.1547    3.5759   -1.9916 O   0  0  0  0  0  0  0  0  0  0  0  0
    7.0279   -1.5058   -4.1414 C   0  0  0  0  0  0  0  0  0  0  0  0
    7.9056   -1.2896   -4.7562 H   0  0  0  0  0  0  0  0  0  0  0  0
    7.3884   -1.8432   -3.1623 H   0  0  0  0  0  0  0  0  0  0  0  0
    6.4899   -2.3431   -4.5954 H   0  0  0  0  0  0  0  0  0  0  0  0
  1  6  2  0  0  0  0
  1  7  1  0  0  0  0
  2  8  1  6  0  0  0
  2  1  1  0  0  0  0
  3 14  1  6  0  0  0
  3  4  1  0  0  0  0
  3  2  1  0  0  0  0
  4  9  1  6  0  0  0
  4  5  1  0  0  0  0
  5 25  1  0  0  0  0
  5  6  1  0  0  0  0
  6 11  1  0  0  0  0
 10  5  1  0  0  0  0
 11 12  2  0  0  0  0
 11 13  2  0  0  0  0
 15 14  1  0  0  0  0
 16 21  2  0  0  0  0
 17 18  2  0  0  0  0
 17 16  1  0  0  0  0
 18 19  1  0  0  0  0
 19 24  1  0  0  0  0
 19 20  2  0  0  0  0
 20  2  1  0  0  0  0
 21 20  1  0  0  0  0
 21 26  1  0  0  0  0
 22 16  1  0  0  0  0
 23 17  1  0  0  0  0
 26 29  2  0  0  0  0
 27  4  1  0  0  0  0
 27 26  1  0  0  0  0
 28 26  2  0  0  0  0
 30 18  1  0  0  0  0
 30 32  1  0  0  0  0
 31 30  1  0  0  0  0
 33 30  1  0  0  0  0
M  RAD  3   3   2  14   2  15   3
M  END
