Coordinates from ORCA-job p-NO2-Ph-N2-H-OTs-B3LYPG-6-31G_dp-scan-d09-49-n400
 OpenBabel08281820503D

 33 35  0  0  1  0  0  0  0  0999 V2000
    1.9572    0.5276   -1.8133 C   0  0  0  0  0  0  0  0  0  0  0  0
    2.4250    0.2400   -3.2225 C   0  0  1  0  0  0  0  0  0  0  0  0
    1.5242    0.9473   -4.2117 C   0  0  1  0  0  0  0  0  0  0  0  0
    1.0120    2.2949   -3.8912 C   0  0  1  0  0  0  0  0  0  0  0  0
    0.4838    2.4689   -2.4739 C   0  0  0  0  0  0  0  0  0  0  0  0
    1.0756    1.4839   -1.5185 C   0  0  0  0  0  0  0  0  0  0  0  0
    2.3637   -0.0761   -1.0098 H   0  0  0  0  0  0  0  0  0  0  0  0
    2.3385   -0.8436   -3.3698 H   0  0  0  0  0  0  0  0  0  0  0  0
    0.2872    2.6303   -4.6339 H   0  0  0  0  0  0  0  0  0  0  0  0
   -0.6049    2.5046   -2.4082 H   0  0  0  0  0  0  0  0  0  0  0  0
    0.6715    1.6448   -0.1090 N   0  0  0  0  0  0  0  0  0  0  0  0
   -0.1460    2.5351    0.1227 O   0  0  0  0  0  0  0  0  0  0  0  0
    1.1487    0.8876    0.7338 O   0  0  0  0  0  0  0  0  0  0  0  0
    1.4172    0.4860   -5.4238 N   0  0  0  0  0  0  0  0  0  0  0  0
    1.2932    0.0423   -6.4713 N   0  0  0  0  0  0  0  0  0  0  0  0
    5.7085    2.1266   -4.0265 C   0  0  0  0  0  0  0  0  0  0  0  0
    6.5778    1.0536   -4.2157 C   0  0  0  0  0  0  0  0  0  0  0  0
    6.1412   -0.2595   -4.0285 C   0  0  0  0  0  0  0  0  0  0  0  0
    4.7983   -0.4611   -3.6776 C   0  0  0  0  0  0  0  0  0  0  0  0
    3.9004    0.5894   -3.4784 C   0  0  0  0  0  0  0  0  0  0  0  0
    4.3824    1.9041   -3.6505 C   0  0  0  0  0  0  0  0  0  0  0  0
    6.0509    3.1448   -4.1701 H   0  0  0  0  0  0  0  0  0  0  0  0
    7.6039    1.2468   -4.5141 H   0  0  0  0  0  0  0  0  0  0  0  0
    4.4343   -1.4805   -3.5672 H   0  0  0  0  0  0  0  0  0  0  0  0
    0.9304    3.4606   -2.3627 H   0  0  0  0  0  0  0  0  0  0  0  0
    3.4873    3.4200   -3.2278 S   0  0  0  0  0  0  0  0  0  0  0  0
    2.0213    3.3879   -3.9685 O   0  0  0  0  0  0  0  0  0  0  0  0
    4.1611    4.5365   -3.8753 O   0  0  0  0  0  0  0  0  0  0  0  0
    3.2868    3.4253   -1.7796 O   0  0  0  0  0  0  0  0  0  0  0  0
    7.0769   -1.4316   -4.1900 C   0  0  0  0  0  0  0  0  0  0  0  0
    7.9348   -1.1754   -4.8169 H   0  0  0  0  0  0  0  0  0  0  0  0
    7.4650   -1.7546   -3.2167 H   0  0  0  0  0  0  0  0  0  0  0  0
    6.5701   -2.2916   -4.6378 H   0  0  0  0  0  0  0  0  0  0  0  0
  1  6  2  0  0  0  0
  1  7  1  0  0  0  0
  2  8  1  6  0  0  0
  2  1  1  0  0  0  0
  3 14  1  6  0  0  0
  3  4  1  0  0  0  0
  3  2  1  0  0  0  0
  4  9  1  6  0  0  0
  4  5  1  0  0  0  0
  5 10  1  0  0  0  0
  5 25  1  0  0  0  0
  5  6  1  0  0  0  0
  6 11  1  0  0  0  0
 11 12  2  0  0  0  0
 11 13  2  0  0  0  0
 15 14  1  0  0  0  0
 16 21  2  0  0  0  0
 17 18  2  0  0  0  0
 17 16  1  0  0  0  0
 18 19  1  0  0  0  0
 19 24  1  0  0  0  0
 19 20  2  0  0  0  0
 20  2  1  0  0  0  0
 21 20  1  0  0  0  0
 21 26  1  0  0  0  0
 22 16  1  0  0  0  0
 23 17  1  0  0  0  0
 26 29  2  0  0  0  0
 27  4  1  0  0  0  0
 27 26  1  0  0  0  0
 28 26  2  0  0  0  0
 30 18  1  0  0  0  0
 30 32  1  0  0  0  0
 31 30  1  0  0  0  0
 33 30  1  0  0  0  0
M  RAD  3   3   2  14   2  15   3
M  END
