Coordinates from ORCA-job p-NO2-Ph-N2-H-OTs-B3LYPG-6-31G_dp-scan-d09-49-n400
 OpenBabel08281820503D

 33 35  0  0  1  0  0  0  0  0999 V2000
    2.0396    0.5763   -1.8437 C   0  0  0  0  0  0  0  0  0  0  0  0
    2.4260    0.3029   -3.2774 C   0  0  1  0  0  0  0  0  0  0  0  0
    1.4679    1.0170   -4.2097 C   0  0  1  0  0  0  0  0  0  0  0  0
    1.0497    2.4162   -3.8919 C   0  0  1  0  0  0  0  0  0  0  0  0
    0.4159    2.4176   -2.4613 C   0  0  0  0  0  0  0  0  0  0  0  0
    1.1454    1.5067   -1.5140 C   0  0  0  0  0  0  0  0  0  0  0  0
    2.5246    0.0029   -1.0622 H   0  0  0  0  0  0  0  0  0  0  0  0
    2.3240   -0.7777   -3.4358 H   0  0  0  0  0  0  0  0  0  0  0  0
    0.2954    2.7683   -4.5961 H   0  0  0  0  0  0  0  0  0  0  0  0
   -0.5862    1.9983   -2.6316 H   0  0  0  0  0  0  0  0  0  0  0  0
    0.8042    1.6625   -0.0876 N   0  0  0  0  0  0  0  0  0  0  0  0
   -0.0945    2.4633    0.1763 O   0  0  0  0  0  0  0  0  0  0  0  0
    1.4063    0.9851    0.7419 O   0  0  0  0  0  0  0  0  0  0  0  0
    1.2690    0.5435   -5.4033 N   0  0  0  0  0  0  0  0  0  0  0  0
    1.0585    0.0930   -6.4352 N   0  0  0  0  0  0  0  0  0  0  0  0
    5.7941    2.1184   -3.9428 C   0  0  0  0  0  0  0  0  0  0  0  0
    6.6383    1.0240   -4.1168 C   0  0  0  0  0  0  0  0  0  0  0  0
    6.1479   -0.2789   -4.0011 C   0  0  0  0  0  0  0  0  0  0  0  0
    4.7836   -0.4444   -3.7251 C   0  0  0  0  0  0  0  0  0  0  0  0
    3.9086    0.6295   -3.5393 C   0  0  0  0  0  0  0  0  0  0  0  0
    4.4424    1.9303   -3.6469 C   0  0  0  0  0  0  0  0  0  0  0  0
    6.1736    3.1284   -4.0449 H   0  0  0  0  0  0  0  0  0  0  0  0
    7.6854    1.1910   -4.3518 H   0  0  0  0  0  0  0  0  0  0  0  0
    4.3839   -1.4542   -3.6587 H   0  0  0  0  0  0  0  0  0  0  0  0
    0.2086    3.3709   -1.9479 H   0  0  0  0  0  0  0  0  0  0  0  0
    3.5314    3.4624   -3.3401 S   0  0  0  0  0  0  0  0  0  0  0  0
    2.1800    3.3334   -4.2556 O   0  0  0  0  0  0  0  0  0  0  0  0
    4.2710    4.5492   -3.9642 O   0  0  0  0  0  0  0  0  0  0  0  0
    3.1566    3.5304   -1.9297 O   0  0  0  0  0  0  0  0  0  0  0  0
    7.0527   -1.4764   -4.1534 C   0  0  0  0  0  0  0  0  0  0  0  0
    7.9262   -1.2423   -4.7675 H   0  0  0  0  0  0  0  0  0  0  0  0
    7.4193   -1.8123   -3.1760 H   0  0  0  0  0  0  0  0  0  0  0  0
    6.5287   -2.3205   -4.6110 H   0  0  0  0  0  0  0  0  0  0  0  0
  1  6  2  0  0  0  0
  1  7  1  0  0  0  0
  2  8  1  6  0  0  0
  2  1  1  0  0  0  0
  3 14  1  6  0  0  0
  3  4  1  0  0  0  0
  3  2  1  0  0  0  0
  4  9  1  6  0  0  0
  4  5  1  0  0  0  0
  5 25  1  0  0  0  0
  5  6  1  0  0  0  0
  6 11  1  0  0  0  0
 10  5  1  0  0  0  0
 11 12  2  0  0  0  0
 11 13  2  0  0  0  0
 15 14  1  0  0  0  0
 16 21  2  0  0  0  0
 17 18  2  0  0  0  0
 17 16  1  0  0  0  0
 18 19  1  0  0  0  0
 19 24  1  0  0  0  0
 19 20  2  0  0  0  0
 20  2  1  0  0  0  0
 21 20  1  0  0  0  0
 21 26  1  0  0  0  0
 22 16  1  0  0  0  0
 23 17  1  0  0  0  0
 26 29  2  0  0  0  0
 27  4  1  0  0  0  0
 27 26  1  0  0  0  0
 28 26  2  0  0  0  0
 30 18  1  0  0  0  0
 30 32  1  0  0  0  0
 31 30  1  0  0  0  0
 33 30  1  0  0  0  0
M  RAD  3   3   2  14   2  15   3
M  END
