Coordinates from ORCA-job p-NO2-Ph-N2-H-OTs-B3LYPG-6-31G_dp-scan-d09-49-n400
 OpenBabel08281820503D

 33 35  0  0  1  0  0  0  0  0999 V2000
    2.0306    0.5636   -1.8446 C   0  0  0  0  0  0  0  0  0  0  0  0
    2.4247    0.2929   -3.2769 C   0  0  1  0  0  0  0  0  0  0  0  0
    1.4699    1.0073   -4.2115 C   0  0  1  0  0  0  0  0  0  0  0  0
    1.0472    2.4036   -3.8922 C   0  0  1  0  0  0  0  0  0  0  0  0
    0.4329    2.4279   -2.4621 C   0  0  0  0  0  0  0  0  0  0  0  0
    1.1435    1.5013   -1.5166 C   0  0  0  0  0  0  0  0  0  0  0  0
    2.5034   -0.0185   -1.0620 H   0  0  0  0  0  0  0  0  0  0  0  0
    2.3255   -0.7877   -3.4374 H   0  0  0  0  0  0  0  0  0  0  0  0
    0.2902    2.7515   -4.5959 H   0  0  0  0  0  0  0  0  0  0  0  0
   -0.5935    2.0604   -2.5993 H   0  0  0  0  0  0  0  0  0  0  0  0
    0.7952    1.6564   -0.0921 N   0  0  0  0  0  0  0  0  0  0  0  0
   -0.0905    2.4724    0.1681 O   0  0  0  0  0  0  0  0  0  0  0  0
    1.3775    0.9628    0.7385 O   0  0  0  0  0  0  0  0  0  0  0  0
    1.2739    0.5347   -5.4060 N   0  0  0  0  0  0  0  0  0  0  0  0
    1.0663    0.0848   -6.4387 N   0  0  0  0  0  0  0  0  0  0  0  0
    5.7848    2.1202   -3.9481 C   0  0  0  0  0  0  0  0  0  0  0  0
    6.6329    1.0288   -4.1218 C   0  0  0  0  0  0  0  0  0  0  0  0
    6.1483   -0.2757   -4.0011 C   0  0  0  0  0  0  0  0  0  0  0  0
    4.7854   -0.4462   -3.7216 C   0  0  0  0  0  0  0  0  0  0  0  0
    3.9064    0.6245   -3.5360 C   0  0  0  0  0  0  0  0  0  0  0  0
    4.4347    1.9275   -3.6478 C   0  0  0  0  0  0  0  0  0  0  0  0
    6.1602    3.1315   -4.0531 H   0  0  0  0  0  0  0  0  0  0  0  0
    7.6786    1.1996   -4.3602 H   0  0  0  0  0  0  0  0  0  0  0  0
    4.3898   -1.4574   -3.6524 H   0  0  0  0  0  0  0  0  0  0  0  0
    0.3054    3.4057   -1.9777 H   0  0  0  0  0  0  0  0  0  0  0  0
    3.5232    3.4585   -3.3339 S   0  0  0  0  0  0  0  0  0  0  0  0
    2.1622    3.3360   -4.2368 O   0  0  0  0  0  0  0  0  0  0  0  0
    4.2563    4.5470   -3.9625 O   0  0  0  0  0  0  0  0  0  0  0  0
    3.1631    3.5242   -1.9195 O   0  0  0  0  0  0  0  0  0  0  0  0
    7.0576   -1.4699   -4.1524 C   0  0  0  0  0  0  0  0  0  0  0  0
    7.9299   -1.2333   -4.7673 H   0  0  0  0  0  0  0  0  0  0  0  0
    7.4260   -1.8031   -3.1748 H   0  0  0  0  0  0  0  0  0  0  0  0
    6.5366   -2.3167   -4.6086 H   0  0  0  0  0  0  0  0  0  0  0  0
  1  6  2  0  0  0  0
  1  7  1  0  0  0  0
  2  8  1  6  0  0  0
  2  1  1  0  0  0  0
  3 14  1  6  0  0  0
  3  4  1  0  0  0  0
  3  2  1  0  0  0  0
  4  9  1  6  0  0  0
  4  5  1  0  0  0  0
  5 25  1  0  0  0  0
  5  6  1  0  0  0  0
  6 11  1  0  0  0  0
 10  5  1  0  0  0  0
 11 12  2  0  0  0  0
 11 13  2  0  0  0  0
 15 14  1  0  0  0  0
 16 21  2  0  0  0  0
 17 18  2  0  0  0  0
 17 16  1  0  0  0  0
 18 19  1  0  0  0  0
 19 24  1  0  0  0  0
 19 20  2  0  0  0  0
 20  2  1  0  0  0  0
 21 20  1  0  0  0  0
 21 26  1  0  0  0  0
 22 16  1  0  0  0  0
 23 17  1  0  0  0  0
 26 29  2  0  0  0  0
 27  4  1  0  0  0  0
 27 26  1  0  0  0  0
 28 26  2  0  0  0  0
 30 18  1  0  0  0  0
 30 32  1  0  0  0  0
 31 30  1  0  0  0  0
 33 30  1  0  0  0  0
M  RAD  3   3   2  14   2  15   3
M  END
