Coordinates from ORCA-job p-NO2-Ph-N2-H-OTs-B3LYPG-6-31G_dp-scan-d09-49-n400
 OpenBabel08281820503D

 33 35  0  0  1  0  0  0  0  0999 V2000
    2.0873    0.6625   -1.8287 C   0  0  0  0  0  0  0  0  0  0  0  0
    2.4361    0.3872   -3.2707 C   0  0  1  0  0  0  0  0  0  0  0  0
    1.4626    1.1016   -4.1928 C   0  0  1  0  0  0  0  0  0  0  0  0
    1.0323    2.4896   -3.8708 C   0  0  1  0  0  0  0  0  0  0  0  0
    0.2755    2.3277   -2.4128 C   0  0  0  0  0  0  0  0  0  0  0  0
    1.1216    1.5106   -1.4769 C   0  0  0  0  0  0  0  0  0  0  0  0
    2.6579    0.1531   -1.0610 H   0  0  0  0  0  0  0  0  0  0  0  0
    2.3133   -0.6935   -3.4203 H   0  0  0  0  0  0  0  0  0  0  0  0
    0.3060    2.8847   -4.5772 H   0  0  0  0  0  0  0  0  0  0  0  0
   -0.5247    1.6701   -2.7874 H   0  0  0  0  0  0  0  0  0  0  0  0
    0.8229    1.6485   -0.0369 N   0  0  0  0  0  0  0  0  0  0  0  0
   -0.1748    2.3097    0.2618 O   0  0  0  0  0  0  0  0  0  0  0  0
    1.5513    1.0819    0.7726 O   0  0  0  0  0  0  0  0  0  0  0  0
    1.2946    0.6483   -5.4005 N   0  0  0  0  0  0  0  0  0  0  0  0
    1.1099    0.2113   -6.4427 N   0  0  0  0  0  0  0  0  0  0  0  0
    5.8516    2.1060   -3.9653 C   0  0  0  0  0  0  0  0  0  0  0  0
    6.6663    0.9865   -4.1195 C   0  0  0  0  0  0  0  0  0  0  0  0
    6.1388   -0.3007   -3.9930 C   0  0  0  0  0  0  0  0  0  0  0  0
    4.7692   -0.4245   -3.7219 C   0  0  0  0  0  0  0  0  0  0  0  0
    3.9239    0.6764   -3.5541 C   0  0  0  0  0  0  0  0  0  0  0  0
    4.4937    1.9600   -3.6766 C   0  0  0  0  0  0  0  0  0  0  0  0
    6.2577    3.1044   -4.0789 H   0  0  0  0  0  0  0  0  0  0  0  0
    7.7194    1.1209   -4.3493 H   0  0  0  0  0  0  0  0  0  0  0  0
    4.3415   -1.4221   -3.6436 H   0  0  0  0  0  0  0  0  0  0  0  0
   -0.3442    3.0324   -1.7512 H   0  0  0  0  0  0  0  0  0  0  0  0
    3.5995    3.5124   -3.4319 S   0  0  0  0  0  0  0  0  0  0  0  0
    2.3005    3.3571   -4.4000 O   0  0  0  0  0  0  0  0  0  0  0  0
    4.3942    4.5743   -4.0350 O   0  0  0  0  0  0  0  0  0  0  0  0
    3.1616    3.6033   -2.0403 O   0  0  0  0  0  0  0  0  0  0  0  0
    7.0105   -1.5246   -4.1291 C   0  0  0  0  0  0  0  0  0  0  0  0
    7.8892   -1.3225   -4.7474 H   0  0  0  0  0  0  0  0  0  0  0  0
    7.3695   -1.8573   -3.1479 H   0  0  0  0  0  0  0  0  0  0  0  0
    6.4634   -2.3603   -4.5752 H   0  0  0  0  0  0  0  0  0  0  0  0
  1  6  2  0  0  0  0
  1  7  1  0  0  0  0
  2  8  1  6  0  0  0
  2  1  1  0  0  0  0
  3 14  1  6  0  0  0
  3  4  1  0  0  0  0
  3  2  1  0  0  0  0
  4  9  1  6  0  0  0
  4  5  1  0  0  0  0
  5 25  1  0  0  0  0
  5  6  1  0  0  0  0
  6 11  1  0  0  0  0
 10  5  1  0  0  0  0
 11 12  2  0  0  0  0
 11 13  2  0  0  0  0
 15 14  1  0  0  0  0
 16 21  2  0  0  0  0
 17 18  2  0  0  0  0
 17 16  1  0  0  0  0
 18 19  1  0  0  0  0
 19 24  1  0  0  0  0
 19 20  2  0  0  0  0
 20  2  1  0  0  0  0
 21 20  1  0  0  0  0
 21 26  1  0  0  0  0
 22 16  1  0  0  0  0
 23 17  1  0  0  0  0
 26 29  2  0  0  0  0
 27  4  1  0  0  0  0
 27 26  1  0  0  0  0
 28 26  2  0  0  0  0
 30 18  1  0  0  0  0
 30 32  1  0  0  0  0
 31 30  1  0  0  0  0
 33 30  1  0  0  0  0
M  RAD  3   3   2  14   2  15   3
M  END
