Coordinates from ORCA-job p-NO2-Ph-N2-H-OTs-B3LYPG-6-31G_dp-scan-d09-49-n400
 OpenBabel08281820503D

 33 35  0  0  1  0  0  0  0  0999 V2000
    1.9538    0.5307   -1.8084 C   0  0  0  0  0  0  0  0  0  0  0  0
    2.4262    0.2390   -3.2155 C   0  0  1  0  0  0  0  0  0  0  0  0
    1.5303    0.9448   -4.2102 C   0  0  1  0  0  0  0  0  0  0  0  0
    1.0101    2.2881   -3.8912 C   0  0  1  0  0  0  0  0  0  0  0  0
    0.4789    2.4677   -2.4763 C   0  0  0  0  0  0  0  0  0  0  0  0
    1.0687    1.4854   -1.5180 C   0  0  0  0  0  0  0  0  0  0  0  0
    2.3597   -0.0699   -1.0023 H   0  0  0  0  0  0  0  0  0  0  0  0
    2.3396   -0.8451   -3.3597 H   0  0  0  0  0  0  0  0  0  0  0  0
    0.2929    2.6256   -4.6399 H   0  0  0  0  0  0  0  0  0  0  0  0
   -0.6088    2.5165   -2.4068 H   0  0  0  0  0  0  0  0  0  0  0  0
    0.6616    1.6484   -0.1093 N   0  0  0  0  0  0  0  0  0  0  0  0
   -0.1564    2.5389    0.1193 O   0  0  0  0  0  0  0  0  0  0  0  0
    1.1371    0.8924    0.7355 O   0  0  0  0  0  0  0  0  0  0  0  0
    1.4321    0.4839   -5.4234 N   0  0  0  0  0  0  0  0  0  0  0  0
    1.3182    0.0413   -6.4724 N   0  0  0  0  0  0  0  0  0  0  0  0
    5.7049    2.1262   -4.0317 C   0  0  0  0  0  0  0  0  0  0  0  0
    6.5742    1.0537   -4.2241 C   0  0  0  0  0  0  0  0  0  0  0  0
    6.1400   -0.2596   -4.0326 C   0  0  0  0  0  0  0  0  0  0  0  0
    4.7990   -0.4622   -3.6749 C   0  0  0  0  0  0  0  0  0  0  0  0
    3.9013    0.5878   -3.4725 C   0  0  0  0  0  0  0  0  0  0  0  0
    4.3811    1.9027   -3.6486 C   0  0  0  0  0  0  0  0  0  0  0  0
    6.0457    3.1446   -4.1777 H   0  0  0  0  0  0  0  0  0  0  0  0
    7.5985    1.2474   -4.5280 H   0  0  0  0  0  0  0  0  0  0  0  0
    4.4363   -1.4817   -3.5619 H   0  0  0  0  0  0  0  0  0  0  0  0
    0.9469    3.4543   -2.3929 H   0  0  0  0  0  0  0  0  0  0  0  0
    3.4890    3.4176   -3.2161 S   0  0  0  0  0  0  0  0  0  0  0  0
    2.0144    3.3919   -3.9421 O   0  0  0  0  0  0  0  0  0  0  0  0
    4.1589    4.5362   -3.8642 O   0  0  0  0  0  0  0  0  0  0  0  0
    3.2996    3.4175   -1.7664 O   0  0  0  0  0  0  0  0  0  0  0  0
    7.0762   -1.4309   -4.1971 C   0  0  0  0  0  0  0  0  0  0  0  0
    7.9299   -1.1750   -4.8299 H   0  0  0  0  0  0  0  0  0  0  0  0
    7.4706   -1.7511   -3.2254 H   0  0  0  0  0  0  0  0  0  0  0  0
    6.5677   -2.2925   -4.6398 H   0  0  0  0  0  0  0  0  0  0  0  0
  1  6  2  0  0  0  0
  1  7  1  0  0  0  0
  2  8  1  6  0  0  0
  2  1  1  0  0  0  0
  3 14  1  6  0  0  0
  3  4  1  0  0  0  0
  3  2  1  0  0  0  0
  4  9  1  6  0  0  0
  4  5  1  0  0  0  0
  5 10  1  0  0  0  0
  5 25  1  0  0  0  0
  5  6  1  0  0  0  0
  6 11  1  0  0  0  0
 11 12  2  0  0  0  0
 11 13  2  0  0  0  0
 15 14  1  0  0  0  0
 16 21  2  0  0  0  0
 17 18  2  0  0  0  0
 17 16  1  0  0  0  0
 18 19  1  0  0  0  0
 19 24  1  0  0  0  0
 19 20  2  0  0  0  0
 20  2  1  0  0  0  0
 21 20  1  0  0  0  0
 21 26  1  0  0  0  0
 22 16  1  0  0  0  0
 23 17  1  0  0  0  0
 26 29  2  0  0  0  0
 27  4  1  0  0  0  0
 27 26  1  0  0  0  0
 28 26  2  0  0  0  0
 30 18  1  0  0  0  0
 30 32  1  0  0  0  0
 31 30  1  0  0  0  0
 33 30  1  0  0  0  0
M  RAD  3   3   2  14   2  15   3
M  END
