Coordinates from ORCA-job p-NO2-Ph-N2-H-OTs-B3LYPG-6-31G_dp-scan-d09-49-n400
 OpenBabel08281820503D

 33 35  0  0  1  0  0  0  0  0999 V2000
    2.0689    0.6225   -1.8391 C   0  0  0  0  0  0  0  0  0  0  0  0
    2.4305    0.3475   -3.2785 C   0  0  1  0  0  0  0  0  0  0  0  0
    1.4620    1.0624   -4.2025 C   0  0  1  0  0  0  0  0  0  0  0  0
    1.0497    2.4645   -3.8841 C   0  0  1  0  0  0  0  0  0  0  0  0
    0.3447    2.3724   -2.4434 C   0  0  0  0  0  0  0  0  0  0  0  0
    1.1407    1.5149   -1.4980 C   0  0  0  0  0  0  0  0  0  0  0  0
    2.6023    0.0829   -1.0652 H   0  0  0  0  0  0  0  0  0  0  0  0
    2.3170   -0.7329   -3.4332 H   0  0  0  0  0  0  0  0  0  0  0  0
    0.3061    2.8366   -4.5875 H   0  0  0  0  0  0  0  0  0  0  0  0
   -0.5441    1.7919   -2.7376 H   0  0  0  0  0  0  0  0  0  0  0  0
    0.8273    1.6658   -0.0634 N   0  0  0  0  0  0  0  0  0  0  0  0
   -0.1251    2.3956    0.2206 O   0  0  0  0  0  0  0  0  0  0  0  0
    1.5007    1.0459    0.7554 O   0  0  0  0  0  0  0  0  0  0  0  0
    1.2637    0.5937   -5.3979 N   0  0  0  0  0  0  0  0  0  0  0  0
    1.0526    0.1463   -6.4314 N   0  0  0  0  0  0  0  0  0  0  0  0
    5.8283    2.1120   -3.9416 C   0  0  0  0  0  0  0  0  0  0  0  0
    6.6563    1.0042   -4.1079 C   0  0  0  0  0  0  0  0  0  0  0  0
    6.1440   -0.2907   -3.9962 C   0  0  0  0  0  0  0  0  0  0  0  0
    4.7756   -0.4342   -3.7291 C   0  0  0  0  0  0  0  0  0  0  0  0
    3.9166    0.6539   -3.5499 C   0  0  0  0  0  0  0  0  0  0  0  0
    4.4719    1.9455   -3.6557 C   0  0  0  0  0  0  0  0  0  0  0  0
    6.2234    3.1161   -4.0435 H   0  0  0  0  0  0  0  0  0  0  0  0
    7.7078    1.1540   -4.3350 H   0  0  0  0  0  0  0  0  0  0  0  0
    4.3597   -1.4376   -3.6633 H   0  0  0  0  0  0  0  0  0  0  0  0
   -0.1281    3.1916   -1.8354 H   0  0  0  0  0  0  0  0  0  0  0  0
    3.5682    3.4873   -3.3829 S   0  0  0  0  0  0  0  0  0  0  0  0
    2.2449    3.3362   -4.3305 O   0  0  0  0  0  0  0  0  0  0  0  0
    4.3333    4.5608   -4.0006 O   0  0  0  0  0  0  0  0  0  0  0  0
    3.1547    3.5727   -1.9842 O   0  0  0  0  0  0  0  0  0  0  0  0
    7.0307   -1.5025   -4.1430 C   0  0  0  0  0  0  0  0  0  0  0  0
    7.9080   -1.2840   -4.7575 H   0  0  0  0  0  0  0  0  0  0  0  0
    7.3917   -1.8401   -3.1642 H   0  0  0  0  0  0  0  0  0  0  0  0
    6.4942   -2.3403   -4.5979 H   0  0  0  0  0  0  0  0  0  0  0  0
  1  6  2  0  0  0  0
  1  7  1  0  0  0  0
  2  8  1  6  0  0  0
  2  1  1  0  0  0  0
  3 14  1  6  0  0  0
  3  4  1  0  0  0  0
  3  2  1  0  0  0  0
  4  9  1  6  0  0  0
  4  5  1  0  0  0  0
  5 25  1  0  0  0  0
  5  6  1  0  0  0  0
  6 11  1  0  0  0  0
 10  5  1  0  0  0  0
 11 12  2  0  0  0  0
 11 13  2  0  0  0  0
 15 14  1  0  0  0  0
 16 21  2  0  0  0  0
 17 18  2  0  0  0  0
 17 16  1  0  0  0  0
 18 19  1  0  0  0  0
 19 24  1  0  0  0  0
 19 20  2  0  0  0  0
 20  2  1  0  0  0  0
 21 20  1  0  0  0  0
 21 26  1  0  0  0  0
 22 16  1  0  0  0  0
 23 17  1  0  0  0  0
 26 29  2  0  0  0  0
 27  4  1  0  0  0  0
 27 26  1  0  0  0  0
 28 26  2  0  0  0  0
 30 18  1  0  0  0  0
 30 32  1  0  0  0  0
 31 30  1  0  0  0  0
 33 30  1  0  0  0  0
M  RAD  3   3   2  14   2  15   3
M  END
