Coordinates from ORCA-job p-NO2-Ph-N2-H-OTs-B3LYPG-6-31G_dp-scan-d09-49-n400
 OpenBabel08281820503D

 33 35  0  0  1  0  0  0  0  0999 V2000
    1.9544    0.5301   -1.8093 C   0  0  0  0  0  0  0  0  0  0  0  0
    2.4260    0.2391   -3.2167 C   0  0  1  0  0  0  0  0  0  0  0  0
    1.5292    0.9452   -4.2104 C   0  0  1  0  0  0  0  0  0  0  0  0
    1.0104    2.2892   -3.8912 C   0  0  1  0  0  0  0  0  0  0  0  0
    0.4797    2.4679   -2.4759 C   0  0  0  0  0  0  0  0  0  0  0  0
    1.0699    1.4852   -1.5181 C   0  0  0  0  0  0  0  0  0  0  0  0
    2.3603   -0.0710   -1.0036 H   0  0  0  0  0  0  0  0  0  0  0  0
    2.3394   -0.8449   -3.3614 H   0  0  0  0  0  0  0  0  0  0  0  0
    0.2919    2.6264   -4.6389 H   0  0  0  0  0  0  0  0  0  0  0  0
   -0.6080    2.5146   -2.4070 H   0  0  0  0  0  0  0  0  0  0  0  0
    0.6633    1.6478   -0.1092 N   0  0  0  0  0  0  0  0  0  0  0  0
   -0.1546    2.5383    0.1199 O   0  0  0  0  0  0  0  0  0  0  0  0
    1.1390    0.8916    0.7352 O   0  0  0  0  0  0  0  0  0  0  0  0
    1.4297    0.4843   -5.4235 N   0  0  0  0  0  0  0  0  0  0  0  0
    1.3139    0.0414   -6.4722 N   0  0  0  0  0  0  0  0  0  0  0  0
    5.7055    2.1263   -4.0308 C   0  0  0  0  0  0  0  0  0  0  0  0
    6.5748    1.0537   -4.2227 C   0  0  0  0  0  0  0  0  0  0  0  0
    6.1402   -0.2596   -4.0319 C   0  0  0  0  0  0  0  0  0  0  0  0
    4.7989   -0.4620   -3.6753 C   0  0  0  0  0  0  0  0  0  0  0  0
    3.9011    0.5881   -3.4735 C   0  0  0  0  0  0  0  0  0  0  0  0
    4.3813    1.9030   -3.6490 C   0  0  0  0  0  0  0  0  0  0  0  0
    6.0466    3.1446   -4.1764 H   0  0  0  0  0  0  0  0  0  0  0  0
    7.5994    1.2474   -4.5256 H   0  0  0  0  0  0  0  0  0  0  0  0
    4.4359   -1.4815   -3.5627 H   0  0  0  0  0  0  0  0  0  0  0  0
    0.9443    3.4554   -2.3878 H   0  0  0  0  0  0  0  0  0  0  0  0
    3.4887    3.4179   -3.2181 S   0  0  0  0  0  0  0  0  0  0  0  0
    2.0156    3.3912   -3.9466 O   0  0  0  0  0  0  0  0  0  0  0  0
    4.1592    4.5362   -3.8660 O   0  0  0  0  0  0  0  0  0  0  0  0
    3.2974    3.4187   -1.7687 O   0  0  0  0  0  0  0  0  0  0  0  0
    7.0763   -1.4310   -4.1959 C   0  0  0  0  0  0  0  0  0  0  0  0
    7.9309   -1.1750   -4.8274 H   0  0  0  0  0  0  0  0  0  0  0  0
    7.4694   -1.7519   -3.2239 H   0  0  0  0  0  0  0  0  0  0  0  0
    6.5682   -2.2923   -4.6397 H   0  0  0  0  0  0  0  0  0  0  0  0
  1  6  2  0  0  0  0
  1  7  1  0  0  0  0
  2  8  1  6  0  0  0
  2  1  1  0  0  0  0
  3 14  1  6  0  0  0
  3  4  1  0  0  0  0
  3  2  1  0  0  0  0
  4  9  1  6  0  0  0
  4  5  1  0  0  0  0
  5 10  1  0  0  0  0
  5 25  1  0  0  0  0
  5  6  1  0  0  0  0
  6 11  1  0  0  0  0
 11 12  2  0  0  0  0
 11 13  2  0  0  0  0
 15 14  1  0  0  0  0
 16 21  2  0  0  0  0
 17 18  2  0  0  0  0
 17 16  1  0  0  0  0
 18 19  1  0  0  0  0
 19 24  1  0  0  0  0
 19 20  2  0  0  0  0
 20  2  1  0  0  0  0
 21 20  1  0  0  0  0
 21 26  1  0  0  0  0
 22 16  1  0  0  0  0
 23 17  1  0  0  0  0
 26 29  2  0  0  0  0
 27  4  1  0  0  0  0
 27 26  1  0  0  0  0
 28 26  2  0  0  0  0
 30 18  1  0  0  0  0
 30 32  1  0  0  0  0
 31 30  1  0  0  0  0
 33 30  1  0  0  0  0
M  RAD  3   3   2  14   2  15   3
M  END
