Coordinates from ORCA-job p-NO2-Ph-N2-H-OTs-B3LYPG-6-31G_dp-scan-d09-49-n400
 OpenBabel08281820503D

 33 35  0  0  1  0  0  0  0  0999 V2000
    2.0140    0.5456   -1.8434 C   0  0  0  0  0  0  0  0  0  0  0  0
    2.4236    0.2767   -3.2720 C   0  0  1  0  0  0  0  0  0  0  0  0
    1.4767    0.9909   -4.2135 C   0  0  1  0  0  0  0  0  0  0  0  0
    1.0421    2.3804   -3.8928 C   0  0  1  0  0  0  0  0  0  0  0  0
    0.4592    2.4454   -2.4631 C   0  0  0  0  0  0  0  0  0  0  0  0
    1.1355    1.4931   -1.5199 C   0  0  0  0  0  0  0  0  0  0  0  0
    2.4653   -0.0496   -1.0580 H   0  0  0  0  0  0  0  0  0  0  0  0
    2.3291   -0.8040   -3.4337 H   0  0  0  0  0  0  0  0  0  0  0  0
    0.2828    2.7209   -4.5980 H   0  0  0  0  0  0  0  0  0  0  0  0
   -0.6020    2.1778   -2.5423 H   0  0  0  0  0  0  0  0  0  0  0  0
    0.7720    1.6458   -0.0993 N   0  0  0  0  0  0  0  0  0  0  0  0
   -0.0922    2.4862    0.1541 O   0  0  0  0  0  0  0  0  0  0  0  0
    1.3223    0.9289    0.7335 O   0  0  0  0  0  0  0  0  0  0  0  0
    1.2893    0.5189   -5.4099 N   0  0  0  0  0  0  0  0  0  0  0  0
    1.0902    0.0694   -6.4442 N   0  0  0  0  0  0  0  0  0  0  0  0
    5.7680    2.1231   -3.9611 C   0  0  0  0  0  0  0  0  0  0  0  0
    6.6227    1.0369   -4.1355 C   0  0  0  0  0  0  0  0  0  0  0  0
    6.1489   -0.2705   -4.0033 C   0  0  0  0  0  0  0  0  0  0  0  0
    4.7891   -0.4493   -3.7137 C   0  0  0  0  0  0  0  0  0  0  0  0
    3.9037    0.6158   -3.5280 C   0  0  0  0  0  0  0  0  0  0  0  0
    4.4214    1.9224   -3.6499 C   0  0  0  0  0  0  0  0  0  0  0  0
    6.1358    3.1364   -4.0728 H   0  0  0  0  0  0  0  0  0  0  0  0
    7.6653    1.2140   -4.3827 H   0  0  0  0  0  0  0  0  0  0  0  0
    4.4010   -1.4630   -3.6375 H   0  0  0  0  0  0  0  0  0  0  0  0
    0.4780    3.4533   -2.0381 H   0  0  0  0  0  0  0  0  0  0  0  0
    3.5094    3.4502   -3.3198 S   0  0  0  0  0  0  0  0  0  0  0  0
    2.1320    3.3425   -4.2003 O   0  0  0  0  0  0  0  0  0  0  0  0
    4.2316    4.5440   -3.9519 O   0  0  0  0  0  0  0  0  0  0  0  0
    3.1748    3.5063   -1.8985 O   0  0  0  0  0  0  0  0  0  0  0  0
    7.0659   -1.4588   -4.1539 C   0  0  0  0  0  0  0  0  0  0  0  0
    7.9356   -1.2175   -4.7705 H   0  0  0  0  0  0  0  0  0  0  0  0
    7.4376   -1.7880   -3.1762 H   0  0  0  0  0  0  0  0  0  0  0  0
    6.5497   -2.3098   -4.6079 H   0  0  0  0  0  0  0  0  0  0  0  0
  1  6  2  0  0  0  0
  1  7  1  0  0  0  0
  2  8  1  6  0  0  0
  2  1  1  0  0  0  0
  3 14  1  6  0  0  0
  3  4  1  0  0  0  0
  3  2  1  0  0  0  0
  4  9  1  6  0  0  0
  4  5  1  0  0  0  0
  5 25  1  0  0  0  0
  5  6  1  0  0  0  0
  6 11  1  0  0  0  0
 10  5  1  0  0  0  0
 11 12  2  0  0  0  0
 11 13  2  0  0  0  0
 15 14  1  0  0  0  0
 16 21  2  0  0  0  0
 17 18  2  0  0  0  0
 17 16  1  0  0  0  0
 18 19  1  0  0  0  0
 19 24  1  0  0  0  0
 19 20  2  0  0  0  0
 20  2  1  0  0  0  0
 21 20  1  0  0  0  0
 21 26  1  0  0  0  0
 22 16  1  0  0  0  0
 23 17  1  0  0  0  0
 26 29  2  0  0  0  0
 27  4  1  0  0  0  0
 27 26  1  0  0  0  0
 28 26  2  0  0  0  0
 30 18  1  0  0  0  0
 30 32  1  0  0  0  0
 31 30  1  0  0  0  0
 33 30  1  0  0  0  0
M  RAD  3   3   2  14   2  15   3
M  END
