Coordinates from ORCA-job p-NO2-Ph-N2-H-OTs-B3LYPG-6-31G_dp-scan-d09-49-n400
 OpenBabel08281820503D

 33 35  0  0  1  0  0  0  0  0999 V2000
    2.0941    0.4136   -1.9969 C   0  0  0  0  0  0  0  0  0  0  0  0
    2.3618    0.3984   -3.4881 C   0  0  1  0  0  0  0  0  0  0  0  0
    1.3950    1.3272   -4.1787 C   0  0  1  0  0  0  0  0  0  0  0  0
    1.0531    2.6076   -3.4940 C   0  0  1  0  0  0  0  0  0  0  0  0
    0.4452    2.3290   -2.1143 C   0  0  0  0  0  0  0  0  0  0  0  0
    1.2351    1.2565   -1.4193 C   0  0  0  0  0  0  0  0  0  0  0  0
    2.6311   -0.2950   -1.3762 H   0  0  0  0  0  0  0  0  0  0  0  0
    2.1825   -0.6287   -3.8326 H   0  0  0  0  0  0  0  0  0  0  0  0
    0.3930    3.2275   -4.1043 H   0  0  0  0  0  0  0  0  0  0  0  0
   -0.5982    2.0166   -2.2413 H   0  0  0  0  0  0  0  0  0  0  0  0
    1.0195    1.1380    0.0358 N   0  0  0  0  0  0  0  0  0  0  0  0
    0.1560    1.8711    0.5192 O   0  0  0  0  0  0  0  0  0  0  0  0
    1.6800    0.3165    0.6687 O   0  0  0  0  0  0  0  0  0  0  0  0
    1.0406    1.1116   -5.4095 N   0  0  0  0  0  0  0  0  0  0  0  0
    0.7011    0.8924   -6.4788 N   0  0  0  0  0  0  0  0  0  0  0  0
    5.7935    2.1057   -4.1357 C   0  0  0  0  0  0  0  0  0  0  0  0
    6.6394    1.0070   -4.0287 C   0  0  0  0  0  0  0  0  0  0  0  0
    6.1230   -0.2698   -3.7817 C   0  0  0  0  0  0  0  0  0  0  0  0
    4.7366   -0.4004   -3.6428 C   0  0  0  0  0  0  0  0  0  0  0  0
    3.8562    0.6833   -3.7418 C   0  0  0  0  0  0  0  0  0  0  0  0
    4.4100    1.9518   -3.9975 C   0  0  0  0  0  0  0  0  0  0  0  0
    6.1979    3.0942   -4.3211 H   0  0  0  0  0  0  0  0  0  0  0  0
    7.7108    1.1456   -4.1430 H   0  0  0  0  0  0  0  0  0  0  0  0
    4.3210   -1.3870   -3.4477 H   0  0  0  0  0  0  0  0  0  0  0  0
    0.4260    3.2347   -1.5015 H   0  0  0  0  0  0  0  0  0  0  0  0
    3.4706    3.4634   -4.3034 S   0  0  0  0  0  0  0  0  0  0  0  0
    2.8956    3.4300   -5.6476 O   0  0  0  0  0  0  0  0  0  0  0  0
    4.2927    4.5876   -3.8813 O   0  0  0  0  0  0  0  0  0  0  0  0
    2.2686    3.3885   -3.1897 O   0  0  0  0  0  0  0  0  0  0  0  0
    7.0317   -1.4663   -3.6410 C   0  0  0  0  0  0  0  0  0  0  0  0
    7.9368   -1.3520   -4.2432 H   0  0  0  0  0  0  0  0  0  0  0  0
    7.3468   -1.5950   -2.5987 H   0  0  0  0  0  0  0  0  0  0  0  0
    6.5312   -2.3891   -3.9474 H   0  0  0  0  0  0  0  0  0  0  0  0
  1  6  2  0  0  0  0
  1  7  1  0  0  0  0
  2  8  1  6  0  0  0
  2  1  1  0  0  0  0
  3 14  1  6  0  0  0
  3  4  1  0  0  0  0
  3  2  1  0  0  0  0
  4  9  1  6  0  0  0
  4 29  1  0  0  0  0
  4  5  1  0  0  0  0
  5 25  1  0  0  0  0
  5  6  1  0  0  0  0
  6 11  1  0  0  0  0
 10  5  1  0  0  0  0
 11 12  2  0  0  0  0
 11 13  2  0  0  0  0
 15 14  1  0  0  0  0
 16 17  2  0  0  0  0
 16 21  1  0  0  0  0
 17 18  1  0  0  0  0
 18 19  2  0  0  0  0
 18 30  1  0  0  0  0
 19 24  1  0  0  0  0
 20 19  1  0  0  0  0
 20  2  1  0  0  0  0
 21 20  2  0  0  0  0
 22 16  1  0  0  0  0
 23 17  1  0  0  0  0
 26 21  1  0  0  0  0
 26 28  2  0  0  0  0
 26 29  1  0  0  0  0
 27 26  2  0  0  0  0
 30 32  1  0  0  0  0
 31 30  1  0  0  0  0
 33 30  1  0  0  0  0
M  RAD  3   3   2  14   2  15   3
M  END
