Coordinates from ORCA-job p-NO2-Ph-N2-H-OTs-B3LYPG-6-31G_dp-scan-d09-49-n400
 OpenBabel08281820503D

 33 35  0  0  1  0  0  0  0  0999 V2000
    2.0809    0.4143   -1.9796 C   0  0  0  0  0  0  0  0  0  0  0  0
    2.3680    0.3885   -3.4678 C   0  0  1  0  0  0  0  0  0  0  0  0
    1.4051    1.3076   -4.1748 C   0  0  1  0  0  0  0  0  0  0  0  0
    1.0608    2.5887   -3.4974 C   0  0  1  0  0  0  0  0  0  0  0  0
    0.4403    2.3354   -2.1253 C   0  0  0  0  0  0  0  0  0  0  0  0
    1.2118    1.2580   -1.4174 C   0  0  0  0  0  0  0  0  0  0  0  0
    2.6068   -0.2929   -1.3476 H   0  0  0  0  0  0  0  0  0  0  0  0
    2.1966   -0.6428   -3.8035 H   0  0  0  0  0  0  0  0  0  0  0  0
    0.4288    3.2231   -4.1213 H   0  0  0  0  0  0  0  0  0  0  0  0
   -0.6155    2.0624   -2.2300 H   0  0  0  0  0  0  0  0  0  0  0  0
    0.9735    1.1449    0.0342 N   0  0  0  0  0  0  0  0  0  0  0  0
    0.1136    1.8914    0.5030 O   0  0  0  0  0  0  0  0  0  0  0  0
    1.6186    0.3208    0.6797 O   0  0  0  0  0  0  0  0  0  0  0  0
    1.0759    1.0926   -5.4127 N   0  0  0  0  0  0  0  0  0  0  0  0
    0.7556    0.8721   -6.4875 N   0  0  0  0  0  0  0  0  0  0  0  0
    5.7902    2.1032   -4.1588 C   0  0  0  0  0  0  0  0  0  0  0  0
    6.6396    1.0063   -4.0611 C   0  0  0  0  0  0  0  0  0  0  0  0
    6.1294   -0.2694   -3.7963 C   0  0  0  0  0  0  0  0  0  0  0  0
    4.7455   -0.4013   -3.6346 C   0  0  0  0  0  0  0  0  0  0  0  0
    3.8612    0.6799   -3.7252 C   0  0  0  0  0  0  0  0  0  0  0  0
    4.4096    1.9490   -3.9959 C   0  0  0  0  0  0  0  0  0  0  0  0
    6.1908    3.0916   -4.3535 H   0  0  0  0  0  0  0  0  0  0  0  0
    7.7086    1.1455   -4.1953 H   0  0  0  0  0  0  0  0  0  0  0  0
    4.3346   -1.3878   -3.4291 H   0  0  0  0  0  0  0  0  0  0  0  0
    0.4851    3.2677   -1.5605 H   0  0  0  0  0  0  0  0  0  0  0  0
    3.4629    3.4643   -4.2616 S   0  0  0  0  0  0  0  0  0  0  0  0
    2.8335    3.4596   -5.5802 O   0  0  0  0  0  0  0  0  0  0  0  0
    4.2949    4.5808   -3.8391 O   0  0  0  0  0  0  0  0  0  0  0  0
    2.2803    3.3507   -3.1424 O   0  0  0  0  0  0  0  0  0  0  0  0
    7.0420   -1.4636   -3.6627 C   0  0  0  0  0  0  0  0  0  0  0  0
    7.9387   -1.3504   -4.2777 H   0  0  0  0  0  0  0  0  0  0  0  0
    7.3715   -1.5870   -2.6242 H   0  0  0  0  0  0  0  0  0  0  0  0
    6.5392   -2.3887   -3.9579 H   0  0  0  0  0  0  0  0  0  0  0  0
  1  6  2  0  0  0  0
  1  7  1  0  0  0  0
  2  8  1  6  0  0  0
  2  1  1  0  0  0  0
  3 14  1  6  0  0  0
  3  4  1  0  0  0  0
  3  2  1  0  0  0  0
  4  9  1  6  0  0  0
  4 29  1  0  0  0  0
  4  5  1  0  0  0  0
  5 25  1  0  0  0  0
  5  6  1  0  0  0  0
  6 11  1  0  0  0  0
 10  5  1  0  0  0  0
 11 12  2  0  0  0  0
 11 13  2  0  0  0  0
 15 14  1  0  0  0  0
 16 17  2  0  0  0  0
 16 21  1  0  0  0  0
 17 18  1  0  0  0  0
 18 30  1  0  0  0  0
 18 19  2  0  0  0  0
 19 24  1  0  0  0  0
 20 19  1  0  0  0  0
 20  2  1  0  0  0  0
 21 20  2  0  0  0  0
 22 16  1  0  0  0  0
 23 17  1  0  0  0  0
 26 21  1  0  0  0  0
 26 28  2  0  0  0  0
 26 29  1  0  0  0  0
 27 26  2  0  0  0  0
 30 32  1  0  0  0  0
 31 30  1  0  0  0  0
 33 30  1  0  0  0  0
M  RAD  3   3   2  14   2  15   3
M  END
