Coordinates from ORCA-job p-NO2-Ph-N2-H-OTs-B3LYPG-6-31G_dp-scan-d09-49-n400
 OpenBabel08281820503D

 33 35  0  0  1  0  0  0  0  0999 V2000
    2.0590    0.4233   -1.9432 C   0  0  0  0  0  0  0  0  0  0  0  0
    2.3802    0.3733   -3.4255 C   0  0  1  0  0  0  0  0  0  0  0  0
    1.4261    1.2732   -4.1657 C   0  0  1  0  0  0  0  0  0  0  0  0
    1.0753    2.5557   -3.5028 C   0  0  1  0  0  0  0  0  0  0  0  0
    0.4234    2.3429   -2.1490 C   0  0  0  0  0  0  0  0  0  0  0  0
    1.1691    1.2669   -1.4117 C   0  0  0  0  0  0  0  0  0  0  0  0
    2.5690   -0.2762   -1.2897 H   0  0  0  0  0  0  0  0  0  0  0  0
    2.2215   -0.6660   -3.7419 H   0  0  0  0  0  0  0  0  0  0  0  0
    0.4947    3.2139   -4.1494 H   0  0  0  0  0  0  0  0  0  0  0  0
   -0.6441    2.1193   -2.2365 H   0  0  0  0  0  0  0  0  0  0  0  0
    0.8920    1.1672    0.0333 N   0  0  0  0  0  0  0  0  0  0  0  0
    0.0265    1.9250    0.4721 O   0  0  0  0  0  0  0  0  0  0  0  0
    1.5128    0.3433    0.7027 O   0  0  0  0  0  0  0  0  0  0  0  0
    1.1452    1.0587   -5.4155 N   0  0  0  0  0  0  0  0  0  0  0  0
    0.8627    0.8352   -6.5004 N   0  0  0  0  0  0  0  0  0  0  0  0
    5.7840    2.0972   -4.2003 C   0  0  0  0  0  0  0  0  0  0  0  0
    6.6380    1.0026   -4.1220 C   0  0  0  0  0  0  0  0  0  0  0  0
    6.1391   -0.2707   -3.8257 C   0  0  0  0  0  0  0  0  0  0  0  0
    4.7612   -0.4034   -3.6196 C   0  0  0  0  0  0  0  0  0  0  0  0
    3.8711    0.6744   -3.6926 C   0  0  0  0  0  0  0  0  0  0  0  0
    4.4097    1.9433   -3.9913 C   0  0  0  0  0  0  0  0  0  0  0  0
    6.1778    3.0850   -4.4112 H   0  0  0  0  0  0  0  0  0  0  0  0
    7.7016    1.1419   -4.2936 H   0  0  0  0  0  0  0  0  0  0  0  0
    4.3591   -1.3893   -3.3952 H   0  0  0  0  0  0  0  0  0  0  0  0
    0.5478    3.3100   -1.6659 H   0  0  0  0  0  0  0  0  0  0  0  0
    3.4562    3.4674   -4.1814 S   0  0  0  0  0  0  0  0  0  0  0  0
    2.7494    3.5283   -5.4562 O   0  0  0  0  0  0  0  0  0  0  0  0
    4.3038    4.5649   -3.7408 O   0  0  0  0  0  0  0  0  0  0  0  0
    2.2993    3.2830   -3.0625 O   0  0  0  0  0  0  0  0  0  0  0  0
    7.0587   -1.4612   -3.7093 C   0  0  0  0  0  0  0  0  0  0  0  0
    7.9159   -1.3693   -4.3820 H   0  0  0  0  0  0  0  0  0  0  0  0
    7.4526   -1.5501   -2.6897 H   0  0  0  0  0  0  0  0  0  0  0  0
    6.5394   -2.3950   -3.9416 H   0  0  0  0  0  0  0  0  0  0  0  0
  1  6  2  0  0  0  0
  1  7  1  0  0  0  0
  2  8  1  6  0  0  0
  2  1  1  0  0  0  0
  3 14  1  6  0  0  0
  3  4  1  0  0  0  0
  3  2  1  0  0  0  0
  4  9  1  6  0  0  0
  4 29  1  0  0  0  0
  4  5  1  0  0  0  0
  5 25  1  0  0  0  0
  5  6  1  0  0  0  0
  6 11  1  0  0  0  0
 10  5  1  0  0  0  0
 11 12  2  0  0  0  0
 11 13  2  0  0  0  0
 15 14  1  0  0  0  0
 16 17  2  0  0  0  0
 16 21  1  0  0  0  0
 17 18  1  0  0  0  0
 18 30  1  0  0  0  0
 18 19  2  0  0  0  0
 19 24  1  0  0  0  0
 20 19  1  0  0  0  0
 20  2  1  0  0  0  0
 21 20  2  0  0  0  0
 22 16  1  0  0  0  0
 23 17  1  0  0  0  0
 26 21  1  0  0  0  0
 26 28  2  0  0  0  0
 26 29  1  0  0  0  0
 27 26  2  0  0  0  0
 30 32  1  0  0  0  0
 31 30  1  0  0  0  0
 33 30  1  0  0  0  0
M  RAD  3   3   2  14   2  15   3
M  END
