Coordinates from ORCA-job p-NO2-Ph-N2-H-OTs-B3LYPG-6-31G_dp-scan-d09-49-n400
 OpenBabel08281820503D

 33 35  0  0  1  0  0  0  0  0999 V2000
    2.0248    0.5564   -1.8449 C   0  0  0  0  0  0  0  0  0  0  0  0
    2.4240    0.2868   -3.2761 C   0  0  1  0  0  0  0  0  0  0  0  0
    1.4716    1.0014   -4.2126 C   0  0  1  0  0  0  0  0  0  0  0  0
    1.0454    2.3955   -3.8925 C   0  0  1  0  0  0  0  0  0  0  0  0
    0.4430    2.4344   -2.4623 C   0  0  0  0  0  0  0  0  0  0  0  0
    1.1415    1.4981   -1.5180 C   0  0  0  0  0  0  0  0  0  0  0  0
    2.4899   -0.0310   -1.0616 H   0  0  0  0  0  0  0  0  0  0  0  0
    2.3266   -0.7937   -3.4375 H   0  0  0  0  0  0  0  0  0  0  0  0
    0.2871    2.7408   -4.5962 H   0  0  0  0  0  0  0  0  0  0  0  0
   -0.5972    2.1016   -2.5786 H   0  0  0  0  0  0  0  0  0  0  0  0
    0.7883    1.6522   -0.0948 N   0  0  0  0  0  0  0  0  0  0  0  0
   -0.0896    2.4773    0.1631 O   0  0  0  0  0  0  0  0  0  0  0  0
    1.3593    0.9500    0.7364 O   0  0  0  0  0  0  0  0  0  0  0  0
    1.2778    0.5290   -5.4077 N   0  0  0  0  0  0  0  0  0  0  0  0
    1.0724    0.0794   -6.4408 N   0  0  0  0  0  0  0  0  0  0  0  0
    5.7789    2.1213   -3.9519 C   0  0  0  0  0  0  0  0  0  0  0  0
    6.6294    1.0318   -4.1256 C   0  0  0  0  0  0  0  0  0  0  0  0
    6.1486   -0.2738   -4.0014 C   0  0  0  0  0  0  0  0  0  0  0  0
    4.7866   -0.4472   -3.7192 C   0  0  0  0  0  0  0  0  0  0  0  0
    3.9052    0.6214   -3.5338 C   0  0  0  0  0  0  0  0  0  0  0  0
    4.4298    1.9258   -3.6486 C   0  0  0  0  0  0  0  0  0  0  0  0
    6.1517    3.1333   -4.0590 H   0  0  0  0  0  0  0  0  0  0  0  0
    7.6742    1.2049   -4.3664 H   0  0  0  0  0  0  0  0  0  0  0  0
    4.3936   -1.4594   -3.6480 H   0  0  0  0  0  0  0  0  0  0  0  0
    0.3675    3.4249   -1.9976 H   0  0  0  0  0  0  0  0  0  0  0  0
    3.5180    3.4558   -3.3297 S   0  0  0  0  0  0  0  0  0  0  0  0
    2.1514    3.3379   -4.2248 O   0  0  0  0  0  0  0  0  0  0  0  0
    4.2473    4.5458   -3.9601 O   0  0  0  0  0  0  0  0  0  0  0  0
    3.1666    3.5190   -1.9129 O   0  0  0  0  0  0  0  0  0  0  0  0
    7.0607   -1.4658   -4.1521 C   0  0  0  0  0  0  0  0  0  0  0  0
    7.9321   -1.2276   -4.7676 H   0  0  0  0  0  0  0  0  0  0  0  0
    7.4302   -1.7973   -3.1743 H   0  0  0  0  0  0  0  0  0  0  0  0
    6.5415   -2.3143   -4.6073 H   0  0  0  0  0  0  0  0  0  0  0  0
  1  6  2  0  0  0  0
  1  7  1  0  0  0  0
  2  8  1  6  0  0  0
  2  1  1  0  0  0  0
  3 14  1  6  0  0  0
  3  4  1  0  0  0  0
  3  2  1  0  0  0  0
  4  9  1  6  0  0  0
  4  5  1  0  0  0  0
  5 25  1  0  0  0  0
  5  6  1  0  0  0  0
  6 11  1  0  0  0  0
 10  5  1  0  0  0  0
 11 12  2  0  0  0  0
 11 13  2  0  0  0  0
 15 14  1  0  0  0  0
 16 21  2  0  0  0  0
 17 18  2  0  0  0  0
 17 16  1  0  0  0  0
 18 19  1  0  0  0  0
 19 24  1  0  0  0  0
 19 20  2  0  0  0  0
 20  2  1  0  0  0  0
 21 20  1  0  0  0  0
 21 26  1  0  0  0  0
 22 16  1  0  0  0  0
 23 17  1  0  0  0  0
 26 29  2  0  0  0  0
 27  4  1  0  0  0  0
 27 26  1  0  0  0  0
 28 26  2  0  0  0  0
 30 18  1  0  0  0  0
 30 32  1  0  0  0  0
 31 30  1  0  0  0  0
 33 30  1  0  0  0  0
M  RAD  3   3   2  14   2  15   3
M  END
