Coordinates from ORCA-job p-NO2-Ph-N2-H-OTs-B3LYPG-6-31G_dp-scan-d09-49-n400
 OpenBabel08281820503D

 33 34  0  0  1  0  0  0  0  0999 V2000
    1.9761    0.7814   -1.6740 C   0  0  0  0  0  0  0  0  0  0  0  0
    2.5071    0.3008   -3.0037 C   0  0  1  0  0  0  0  0  0  0  0  0
    1.4977    0.6770   -4.1061 C   0  0  0  0  0  0  0  0  0  0  0  0
    0.4263    1.5372   -3.9588 C   0  0  0  0  0  0  0  0  0  0  0  0
    0.2571    2.2395   -2.7246 C   0  0  0  0  0  0  0  0  0  0  0  0
    0.9233    1.5914   -1.5628 C   0  0  0  0  0  0  0  0  0  0  0  0
    2.4755    0.4255   -0.7811 H   0  0  0  0  0  0  0  0  0  0  0  0
    2.5156   -0.7961   -2.9406 H   0  0  0  0  0  0  0  0  0  0  0  0
   -0.1914    1.7849   -4.8175 H   0  0  0  0  0  0  0  0  0  0  0  0
   -0.7157    2.6827   -2.5322 H   0  0  0  0  0  0  0  0  0  0  0  0
    0.4653    1.9900   -0.2272 N   0  0  0  0  0  0  0  0  0  0  0  0
   -0.4304    2.8345   -0.1831 O   0  0  0  0  0  0  0  0  0  0  0  0
    0.9765    1.4470    0.7472 O   0  0  0  0  0  0  0  0  0  0  0  0
    1.7288    0.1713   -5.3256 N   0  0  0  0  0  0  0  0  0  0  0  0
    1.9780   -0.2986   -6.3203 N   0  0  0  0  0  0  0  0  0  0  0  0
    5.8188    2.1556   -3.8166 C   0  0  0  0  0  0  0  0  0  0  0  0
    6.5928    1.0782   -4.2395 C   0  0  0  0  0  0  0  0  0  0  0  0
    6.0758   -0.2198   -4.2289 C   0  0  0  0  0  0  0  0  0  0  0  0
    4.7554   -0.3832   -3.7978 C   0  0  0  0  0  0  0  0  0  0  0  0
    3.9513    0.6850   -3.3684 C   0  0  0  0  0  0  0  0  0  0  0  0
    4.5039    1.9859   -3.3741 C   0  0  0  0  0  0  0  0  0  0  0  0
    6.2205    3.1628   -3.8195 H   0  0  0  0  0  0  0  0  0  0  0  0
    7.6112    1.2514   -4.5765 H   0  0  0  0  0  0  0  0  0  0  0  0
    4.3353   -1.3880   -3.7885 H   0  0  0  0  0  0  0  0  0  0  0  0
    1.0571    3.1124   -3.0091 H   0  0  0  0  0  0  0  0  0  0  0  0
    3.6928    3.5103   -2.7671 S   0  0  0  0  0  0  0  0  0  0  0  0
    2.3995    3.5722   -3.5858 O   0  0  0  0  0  0  0  0  0  0  0  0
    4.6069    4.6038   -3.1184 O   0  0  0  0  0  0  0  0  0  0  0  0
    3.4333    3.2771   -1.3334 O   0  0  0  0  0  0  0  0  0  0  0  0
    6.9142   -1.4054   -4.6409 C   0  0  0  0  0  0  0  0  0  0  0  0
    7.6146   -1.1394   -5.4382 H   0  0  0  0  0  0  0  0  0  0  0  0
    7.5093   -1.7767   -3.7974 H   0  0  0  0  0  0  0  0  0  0  0  0
    6.2958   -2.2359   -4.9937 H   0  0  0  0  0  0  0  0  0  0  0  0
  1  6  2  0  0  0  0
  1  7  1  0  0  0  0
  2  8  1  1  0  0  0
  2  1  1  0  0  0  0
  3  4  2  0  0  0  0
  3  2  1  0  0  0  0
  4  5  1  0  0  0  0
  5 10  1  0  0  0  0
  5  6  1  0  0  0  0
  6 11  1  0  0  0  0
  9  4  1  0  0  0  0
 11 12  2  0  0  0  0
 11 13  2  0  0  0  0
 14  3  1  0  0  0  0
 15 14  1  0  0  0  0
 16 21  2  0  0  0  0
 17 18  2  0  0  0  0
 17 16  1  0  0  0  0
 18 19  1  0  0  0  0
 19 24  1  0  0  0  0
 19 20  2  0  0  0  0
 20  2  1  0  0  0  0
 21 20  1  0  0  0  0
 21 26  1  0  0  0  0
 22 16  1  0  0  0  0
 23 17  1  0  0  0  0
 25  5  1  0  0  0  0
 26 29  1  0  0  0  0
 27 26  2  0  0  0  0
 28 26  2  0  0  0  0
 30 18  1  0  0  0  0
 30 32  1  0  0  0  0
 31 30  1  0  0  0  0
 33 30  1  0  0  0  0
M  RAD  3  14   2  15   3  29   2
M  END
