Coordinates from ORCA-job p-NO2-Ph-N2-H-OTs-B3LYPG-6-31G_dp-scan-d09-49-n400
 OpenBabel08281820503D

 33 35  0  0  1  0  0  0  0  0999 V2000
    1.9522    0.5318   -1.8068 C   0  0  0  0  0  0  0  0  0  0  0  0
    2.4263    0.2384   -3.2130 C   0  0  1  0  0  0  0  0  0  0  0  0
    1.5329    0.9441   -4.2100 C   0  0  1  0  0  0  0  0  0  0  0  0
    1.0087    2.2849   -3.8911 C   0  0  1  0  0  0  0  0  0  0  0  0
    0.4761    2.4669   -2.4770 C   0  0  0  0  0  0  0  0  0  0  0  0
    1.0658    1.4859   -1.5178 C   0  0  0  0  0  0  0  0  0  0  0  0
    2.3581   -0.0674   -0.9997 H   0  0  0  0  0  0  0  0  0  0  0  0
    2.3397   -0.8459   -3.3561 H   0  0  0  0  0  0  0  0  0  0  0  0
    0.2951    2.6238   -4.6426 H   0  0  0  0  0  0  0  0  0  0  0  0
   -0.6109    2.5216   -2.4056 H   0  0  0  0  0  0  0  0  0  0  0  0
    0.6580    1.6498   -0.1093 N   0  0  0  0  0  0  0  0  0  0  0  0
   -0.1603    2.5402    0.1184 O   0  0  0  0  0  0  0  0  0  0  0  0
    1.1336    0.8946    0.7362 O   0  0  0  0  0  0  0  0  0  0  0  0
    1.4384    0.4837   -5.4237 N   0  0  0  0  0  0  0  0  0  0  0  0
    1.3299    0.0426   -6.4739 N   0  0  0  0  0  0  0  0  0  0  0  0
    5.7030    2.1259   -4.0341 C   0  0  0  0  0  0  0  0  0  0  0  0
    6.5723    1.0537   -4.2276 C   0  0  0  0  0  0  0  0  0  0  0  0
    6.1393   -0.2598   -4.0341 C   0  0  0  0  0  0  0  0  0  0  0  0
    4.7991   -0.4628   -3.6737 C   0  0  0  0  0  0  0  0  0  0  0  0
    3.9013    0.5869   -3.4702 C   0  0  0  0  0  0  0  0  0  0  0  0
    4.3800    1.9019   -3.6481 C   0  0  0  0  0  0  0  0  0  0  0  0
    6.0430    3.1444   -4.1814 H   0  0  0  0  0  0  0  0  0  0  0  0
    7.5960    1.2476   -4.5339 H   0  0  0  0  0  0  0  0  0  0  0  0
    4.4369   -1.4824   -3.5595 H   0  0  0  0  0  0  0  0  0  0  0  0
    0.9547    3.4509   -2.4077 H   0  0  0  0  0  0  0  0  0  0  0  0
    3.4899    3.4166   -3.2109 S   0  0  0  0  0  0  0  0  0  0  0  0
    2.0104    3.3942   -3.9287 O   0  0  0  0  0  0  0  0  0  0  0  0
    4.1577    4.5360   -3.8600 O   0  0  0  0  0  0  0  0  0  0  0  0
    3.3067    3.4141   -1.7605 O   0  0  0  0  0  0  0  0  0  0  0  0
    7.0759   -1.4305   -4.1994 C   0  0  0  0  0  0  0  0  0  0  0  0
    7.9272   -1.1752   -4.8357 H   0  0  0  0  0  0  0  0  0  0  0  0
    7.4741   -1.7481   -3.2283 H   0  0  0  0  0  0  0  0  0  0  0  0
    6.5669   -2.2937   -4.6383 H   0  0  0  0  0  0  0  0  0  0  0  0
  1  6  2  0  0  0  0
  1  7  1  0  0  0  0
  2  8  1  6  0  0  0
  2  1  1  0  0  0  0
  3 14  1  6  0  0  0
  3  4  1  0  0  0  0
  3  2  1  0  0  0  0
  4  9  1  6  0  0  0
  4  5  1  0  0  0  0
  5 25  1  0  0  0  0
  5 10  1  0  0  0  0
  5  6  1  0  0  0  0
  6 11  1  0  0  0  0
 11 12  2  0  0  0  0
 11 13  2  0  0  0  0
 15 14  1  0  0  0  0
 16 21  2  0  0  0  0
 17 18  2  0  0  0  0
 17 16  1  0  0  0  0
 18 19  1  0  0  0  0
 19 24  1  0  0  0  0
 19 20  2  0  0  0  0
 20  2  1  0  0  0  0
 21 20  1  0  0  0  0
 21 26  1  0  0  0  0
 22 16  1  0  0  0  0
 23 17  1  0  0  0  0
 26 29  2  0  0  0  0
 27  4  1  0  0  0  0
 27 26  1  0  0  0  0
 28 26  2  0  0  0  0
 30 18  1  0  0  0  0
 30 32  1  0  0  0  0
 31 30  1  0  0  0  0
 33 30  1  0  0  0  0
M  RAD  3   3   2  14   2  15   3
M  END
