Coordinates from ORCA-job p-NO2-Ph-N2-H-OTs-B3LYPG-6-31G_dp-scan-d09-49-n400
 OpenBabel08281820503D

 33 34  0  0  1  0  0  0  0  0999 V2000
    1.9872    0.7622   -1.6860 C   0  0  0  0  0  0  0  0  0  0  0  0
    2.4795    0.3159   -3.0440 C   0  0  1  0  0  0  0  0  0  0  0  0
    1.4696    0.7261   -4.1300 C   0  0  0  0  0  0  0  0  0  0  0  0
    0.3402    1.5725   -3.8760 C   0  0  0  0  0  0  0  0  0  0  0  0
    0.0610    1.9983   -2.6114 C   0  0  0  0  0  0  0  0  0  0  0  0
    0.8762    1.4926   -1.5180 C   0  0  0  0  0  0  0  0  0  0  0  0
    2.5653    0.4657   -0.8194 H   0  0  0  0  0  0  0  0  0  0  0  0
    2.4961   -0.7831   -2.9985 H   0  0  0  0  0  0  0  0  0  0  0  0
   -0.2674    1.8915   -4.7170 H   0  0  0  0  0  0  0  0  0  0  0  0
   -0.7909    2.6248   -2.3871 H   0  0  0  0  0  0  0  0  0  0  0  0
    0.4790    1.8623   -0.1471 N   0  0  0  0  0  0  0  0  0  0  0  0
   -0.4803    2.6257   -0.0374 O   0  0  0  0  0  0  0  0  0  0  0  0
    1.1114    1.3833    0.7895 O   0  0  0  0  0  0  0  0  0  0  0  0
    1.6916    0.3091   -5.3524 N   0  0  0  0  0  0  0  0  0  0  0  0
    1.9209   -0.0828   -6.4009 N   0  0  0  0  0  0  0  0  0  0  0  0
    5.8346    2.1529   -3.8276 C   0  0  0  0  0  0  0  0  0  0  0  0
    6.6129    1.0627   -4.2078 C   0  0  0  0  0  0  0  0  0  0  0  0
    6.0850   -0.2287   -4.1797 C   0  0  0  0  0  0  0  0  0  0  0  0
    4.7532   -0.3765   -3.7730 C   0  0  0  0  0  0  0  0  0  0  0  0
    3.9376    0.6938   -3.3824 C   0  0  0  0  0  0  0  0  0  0  0  0
    4.5099    1.9877   -3.4138 C   0  0  0  0  0  0  0  0  0  0  0  0
    6.2464    3.1549   -3.8495 H   0  0  0  0  0  0  0  0  0  0  0  0
    7.6377    1.2251   -4.5286 H   0  0  0  0  0  0  0  0  0  0  0  0
    4.3252   -1.3769   -3.7625 H   0  0  0  0  0  0  0  0  0  0  0  0
    1.4963    3.2279   -3.3255 H   0  0  0  0  0  0  0  0  0  0  0  0
    3.7235    3.5307   -2.8704 S   0  0  0  0  0  0  0  0  0  0  0  0
    2.4387    3.6714   -3.8377 O   0  0  0  0  0  0  0  0  0  0  0  0
    4.6183    4.6206   -3.2374 O   0  0  0  0  0  0  0  0  0  0  0  0
    3.2824    3.3714   -1.4841 O   0  0  0  0  0  0  0  0  0  0  0  0
    6.9179   -1.4296   -4.5540 C   0  0  0  0  0  0  0  0  0  0  0  0
    7.6960   -1.1647   -5.2751 H   0  0  0  0  0  0  0  0  0  0  0  0
    7.4178   -1.8470   -3.6714 H   0  0  0  0  0  0  0  0  0  0  0  0
    6.3055   -2.2252   -4.9881 H   0  0  0  0  0  0  0  0  0  0  0  0
  1  6  2  0  0  0  0
  1  7  1  0  0  0  0
  2  8  1  1  0  0  0
  2  1  1  0  0  0  0
  3  4  2  0  0  0  0
  3  2  1  0  0  0  0
  4  5  1  0  0  0  0
  5 10  1  0  0  0  0
  5  6  1  0  0  0  0
  6 11  1  0  0  0  0
  9  4  1  0  0  0  0
 11 12  2  0  0  0  0
 11 13  2  0  0  0  0
 14  3  1  0  0  0  0
 15 14  1  0  0  0  0
 16 21  2  0  0  0  0
 17 18  2  0  0  0  0
 17 16  1  0  0  0  0
 18 19  1  0  0  0  0
 19 24  1  0  0  0  0
 19 20  2  0  0  0  0
 20  2  1  0  0  0  0
 21 20  1  0  0  0  0
 21 26  1  0  0  0  0
 22 16  1  0  0  0  0
 23 17  1  0  0  0  0
 26 29  2  0  0  0  0
 27 25  1  0  0  0  0
 27 26  1  0  0  0  0
 28 26  2  0  0  0  0
 30 18  1  0  0  0  0
 30 32  1  0  0  0  0
 31 30  1  0  0  0  0
 33 30  1  0  0  0  0
M  RAD  3   5   2  14   2  15   3
M  END
