Coordinates from ORCA-job p-NO2-Ph-N2-H-OTs-B3LYPG-6-31G_dp-scan-d09-49-n400
 OpenBabel08281820503D

 33 34  0  0  1  0  0  0  0  0999 V2000
    1.9918    0.7749   -1.6862 C   0  0  0  0  0  0  0  0  0  0  0  0
    2.4802    0.3296   -3.0462 C   0  0  1  0  0  0  0  0  0  0  0  0
    1.4708    0.7446   -4.1308 C   0  0  0  0  0  0  0  0  0  0  0  0
    0.3218    1.5643   -3.8663 C   0  0  0  0  0  0  0  0  0  0  0  0
    0.0294    1.9646   -2.5982 C   0  0  0  0  0  0  0  0  0  0  0  0
    0.8648    1.4794   -1.5115 C   0  0  0  0  0  0  0  0  0  0  0  0
    2.5827    0.4938   -0.8232 H   0  0  0  0  0  0  0  0  0  0  0  0
    2.4922   -0.7700   -3.0010 H   0  0  0  0  0  0  0  0  0  0  0  0
   -0.2933    1.8766   -4.7043 H   0  0  0  0  0  0  0  0  0  0  0  0
   -0.8345    2.5719   -2.3675 H   0  0  0  0  0  0  0  0  0  0  0  0
    0.4704    1.8408   -0.1371 N   0  0  0  0  0  0  0  0  0  0  0  0
   -0.5032    2.5848   -0.0195 O   0  0  0  0  0  0  0  0  0  0  0  0
    1.1240    1.3811    0.7948 O   0  0  0  0  0  0  0  0  0  0  0  0
    1.7026    0.3479   -5.3572 N   0  0  0  0  0  0  0  0  0  0  0  0
    1.9402   -0.0247   -6.4117 N   0  0  0  0  0  0  0  0  0  0  0  0
    5.8445    2.1499   -3.8335 C   0  0  0  0  0  0  0  0  0  0  0  0
    6.6191    1.0551   -4.2076 C   0  0  0  0  0  0  0  0  0  0  0  0
    6.0856   -0.2339   -4.1753 C   0  0  0  0  0  0  0  0  0  0  0  0
    4.7524   -0.3751   -3.7703 C   0  0  0  0  0  0  0  0  0  0  0  0
    3.9401    0.6994   -3.3851 C   0  0  0  0  0  0  0  0  0  0  0  0
    4.5185    1.9903   -3.4216 C   0  0  0  0  0  0  0  0  0  0  0  0
    6.2602    3.1502   -3.8593 H   0  0  0  0  0  0  0  0  0  0  0  0
    7.6450    1.2121   -4.5275 H   0  0  0  0  0  0  0  0  0  0  0  0
    4.3204   -1.3737   -3.7570 H   0  0  0  0  0  0  0  0  0  0  0  0
    1.5308    3.2685   -3.3466 H   0  0  0  0  0  0  0  0  0  0  0  0
    3.7363    3.5363   -2.8871 S   0  0  0  0  0  0  0  0  0  0  0  0
    2.4510    3.6744   -3.8631 O   0  0  0  0  0  0  0  0  0  0  0  0
    4.6313    4.6240   -3.2577 O   0  0  0  0  0  0  0  0  0  0  0  0
    3.2821    3.3863   -1.5045 O   0  0  0  0  0  0  0  0  0  0  0  0
    6.9145   -1.4393   -4.5437 C   0  0  0  0  0  0  0  0  0  0  0  0
    7.6886   -1.1819   -5.2718 H   0  0  0  0  0  0  0  0  0  0  0  0
    7.4195   -1.8490   -3.6603 H   0  0  0  0  0  0  0  0  0  0  0  0
    6.2985   -2.2380   -4.9665 H   0  0  0  0  0  0  0  0  0  0  0  0
  1  6  2  0  0  0  0
  1  7  1  0  0  0  0
  2  8  1  1  0  0  0
  2  1  1  0  0  0  0
  3  4  2  0  0  0  0
  3  2  1  0  0  0  0
  4  5  1  0  0  0  0
  5 10  1  0  0  0  0
  5  6  1  0  0  0  0
  6 11  1  0  0  0  0
  9  4  1  0  0  0  0
 11 12  2  0  0  0  0
 11 13  2  0  0  0  0
 14  3  1  0  0  0  0
 15 14  1  0  0  0  0
 16 21  2  0  0  0  0
 17 18  2  0  0  0  0
 17 16  1  0  0  0  0
 18 19  1  0  0  0  0
 19 24  1  0  0  0  0
 19 20  2  0  0  0  0
 20  2  1  0  0  0  0
 21 20  1  0  0  0  0
 21 26  1  0  0  0  0
 22 16  1  0  0  0  0
 23 17  1  0  0  0  0
 26 29  2  0  0  0  0
 27 25  1  0  0  0  0
 27 26  1  0  0  0  0
 28 26  2  0  0  0  0
 30 18  1  0  0  0  0
 30 32  1  0  0  0  0
 31 30  1  0  0  0  0
 33 30  1  0  0  0  0
M  RAD  3   5   2  14   2  15   3
M  END
