Coordinates from ORCA-job p-NO2-Ph-N2-H-OTs-B3LYPG-6-31G_dp-scan-d09-49-n400
 OpenBabel08281820503D

 33 35  0  0  1  0  0  0  0  0999 V2000
    1.9919    0.5288   -1.8384 C   0  0  0  0  0  0  0  0  0  0  0  0
    2.4226    0.2596   -3.2615 C   0  0  1  0  0  0  0  0  0  0  0  0
    1.4885    0.9733   -4.2150 C   0  0  1  0  0  0  0  0  0  0  0  0
    1.0320    2.3507   -3.8917 C   0  0  1  0  0  0  0  0  0  0  0  0
    0.4840    2.4623   -2.4635 C   0  0  0  0  0  0  0  0  0  0  0  0
    1.1186    1.4839   -1.5217 C   0  0  0  0  0  0  0  0  0  0  0  0
    2.4199   -0.0783   -1.0489 H   0  0  0  0  0  0  0  0  0  0  0  0
    2.3326   -0.8216   -3.4224 H   0  0  0  0  0  0  0  0  0  0  0  0
    0.2747    2.6840   -4.6028 H   0  0  0  0  0  0  0  0  0  0  0  0
   -0.6024    2.3245   -2.4744 H   0  0  0  0  0  0  0  0  0  0  0  0
    0.7376    1.6347   -0.1054 N   0  0  0  0  0  0  0  0  0  0  0  0
   -0.1017    2.5012    0.1414 O   0  0  0  0  0  0  0  0  0  0  0  0
    1.2500    0.8915    0.7288 O   0  0  0  0  0  0  0  0  0  0  0  0
    1.3206    0.5045   -5.4161 N   0  0  0  0  0  0  0  0  0  0  0  0
    1.1399    0.0572   -6.4544 N   0  0  0  0  0  0  0  0  0  0  0  0
    5.7457    2.1258   -3.9841 C   0  0  0  0  0  0  0  0  0  0  0  0
    6.6078    1.0455   -4.1595 C   0  0  0  0  0  0  0  0  0  0  0  0
    6.1481   -0.2647   -4.0078 C   0  0  0  0  0  0  0  0  0  0  0  0
    4.7932   -0.4532   -3.7011 C   0  0  0  0  0  0  0  0  0  0  0  0
    3.9008    0.6057   -3.5150 C   0  0  0  0  0  0  0  0  0  0  0  0
    4.4050    1.9159   -3.6544 C   0  0  0  0  0  0  0  0  0  0  0  0
    6.1037    3.1413   -4.1072 H   0  0  0  0  0  0  0  0  0  0  0  0
    7.6455    1.2297   -4.4215 H   0  0  0  0  0  0  0  0  0  0  0  0
    4.4147   -1.4695   -3.6128 H   0  0  0  0  0  0  0  0  0  0  0  0
    0.6847    3.4819   -2.1326 H   0  0  0  0  0  0  0  0  0  0  0  0
    3.4954    3.4398   -3.2982 S   0  0  0  0  0  0  0  0  0  0  0  0
    2.0912    3.3560   -4.1395 O   0  0  0  0  0  0  0  0  0  0  0  0
    4.2013    4.5408   -3.9364 O   0  0  0  0  0  0  0  0  0  0  0  0
    3.2036    3.4810   -1.8666 O   0  0  0  0  0  0  0  0  0  0  0  0
    7.0741   -1.4460   -4.1574 C   0  0  0  0  0  0  0  0  0  0  0  0
    7.9399   -1.1998   -4.7776 H   0  0  0  0  0  0  0  0  0  0  0  0
    7.4514   -1.7689   -3.1797 H   0  0  0  0  0  0  0  0  0  0  0  0
    6.5635   -2.3028   -4.6067 H   0  0  0  0  0  0  0  0  0  0  0  0
  1  6  2  0  0  0  0
  1  7  1  0  0  0  0
  2  8  1  6  0  0  0
  2  1  1  0  0  0  0
  3 14  1  6  0  0  0
  3  4  1  0  0  0  0
  3  2  1  0  0  0  0
  4  9  1  6  0  0  0
  4  5  1  0  0  0  0
  5 25  1  0  0  0  0
  5  6  1  0  0  0  0
  6 11  1  0  0  0  0
 10  5  1  0  0  0  0
 11 12  2  0  0  0  0
 11 13  2  0  0  0  0
 15 14  1  0  0  0  0
 16 21  2  0  0  0  0
 17 18  2  0  0  0  0
 17 16  1  0  0  0  0
 18 19  1  0  0  0  0
 19 24  1  0  0  0  0
 19 20  2  0  0  0  0
 20  2  1  0  0  0  0
 21 20  1  0  0  0  0
 21 26  1  0  0  0  0
 22 16  1  0  0  0  0
 23 17  1  0  0  0  0
 26 29  2  0  0  0  0
 27  4  1  0  0  0  0
 27 26  1  0  0  0  0
 28 26  2  0  0  0  0
 30 18  1  0  0  0  0
 30 32  1  0  0  0  0
 31 30  1  0  0  0  0
 33 30  1  0  0  0  0
M  RAD  3   3   2  14   2  15   3
M  END
