Coordinates from ORCA-job p-NO2-Ph-N2-H-OTs-B3LYPG-6-31G_dp-scan-d09-49-n400
 OpenBabel08281820503D

 33 35  0  0  1  0  0  0  0  0999 V2000
    2.0714    0.4178   -1.9633 C   0  0  0  0  0  0  0  0  0  0  0  0
    2.3734    0.3811   -3.4490 C   0  0  1  0  0  0  0  0  0  0  0  0
    1.4144    1.2918   -4.1707 C   0  0  1  0  0  0  0  0  0  0  0  0
    1.0677    2.5738   -3.5003 C   0  0  1  0  0  0  0  0  0  0  0  0
    0.4345    2.3397   -2.1363 C   0  0  0  0  0  0  0  0  0  0  0  0
    1.1935    1.2623   -1.4150 C   0  0  0  0  0  0  0  0  0  0  0  0
    2.5899   -0.2862   -1.3216 H   0  0  0  0  0  0  0  0  0  0  0  0
    2.2076   -0.6537   -3.7764 H   0  0  0  0  0  0  0  0  0  0  0  0
    0.4585    3.2186   -4.1350 H   0  0  0  0  0  0  0  0  0  0  0  0
   -0.6276    2.0912   -2.2306 H   0  0  0  0  0  0  0  0  0  0  0  0
    0.9380    1.1563    0.0338 N   0  0  0  0  0  0  0  0  0  0  0  0
    0.0739    1.9065    0.4883 O   0  0  0  0  0  0  0  0  0  0  0  0
    1.5683    0.3287    0.6896 O   0  0  0  0  0  0  0  0  0  0  0  0
    1.1060    1.0763   -5.4138 N   0  0  0  0  0  0  0  0  0  0  0  0
    0.8017    0.8538   -6.4929 N   0  0  0  0  0  0  0  0  0  0  0  0
    5.7874    2.1007   -4.1769 C   0  0  0  0  0  0  0  0  0  0  0  0
    6.6391    1.0049   -4.0880 C   0  0  0  0  0  0  0  0  0  0  0  0
    6.1341   -0.2699   -3.8096 C   0  0  0  0  0  0  0  0  0  0  0  0
    4.7526   -0.4025   -3.6283 C   0  0  0  0  0  0  0  0  0  0  0  0
    3.8656    0.6770   -3.7108 C   0  0  0  0  0  0  0  0  0  0  0  0
    4.4095    1.9462   -3.9937 C   0  0  0  0  0  0  0  0  0  0  0  0
    6.1848    3.0889   -4.3785 H   0  0  0  0  0  0  0  0  0  0  0  0
    7.7059    1.1444   -4.2387 H   0  0  0  0  0  0  0  0  0  0  0  0
    4.3457   -1.3889   -3.4146 H   0  0  0  0  0  0  0  0  0  0  0  0
    0.5191    3.2895   -1.6099 H   0  0  0  0  0  0  0  0  0  0  0  0
    3.4587    3.4654   -4.2251 S   0  0  0  0  0  0  0  0  0  0  0  0
    2.7911    3.4892   -5.5228 O   0  0  0  0  0  0  0  0  0  0  0  0
    4.2978    4.5740   -3.7963 O   0  0  0  0  0  0  0  0  0  0  0  0
    2.2887    3.3208   -3.1055 O   0  0  0  0  0  0  0  0  0  0  0  0
    7.0500   -1.4624   -3.6836 C   0  0  0  0  0  0  0  0  0  0  0  0
    7.9324   -1.3557   -4.3203 H   0  0  0  0  0  0  0  0  0  0  0  0
    7.4035   -1.5739   -2.6517 H   0  0  0  0  0  0  0  0  0  0  0  0
    6.5410   -2.3909   -3.9567 H   0  0  0  0  0  0  0  0  0  0  0  0
  1  6  2  0  0  0  0
  1  7  1  0  0  0  0
  2  8  1  6  0  0  0
  2  1  1  0  0  0  0
  3 14  1  6  0  0  0
  3  4  1  0  0  0  0
  3  2  1  0  0  0  0
  4  9  1  6  0  0  0
  4 29  1  0  0  0  0
  4  5  1  0  0  0  0
  5 25  1  0  0  0  0
  5  6  1  0  0  0  0
  6 11  1  0  0  0  0
 10  5  1  0  0  0  0
 11 12  2  0  0  0  0
 11 13  2  0  0  0  0
 15 14  1  0  0  0  0
 16 17  2  0  0  0  0
 16 21  1  0  0  0  0
 17 18  1  0  0  0  0
 18 30  1  0  0  0  0
 18 19  2  0  0  0  0
 19 24  1  0  0  0  0
 20 19  1  0  0  0  0
 20  2  1  0  0  0  0
 21 20  2  0  0  0  0
 22 16  1  0  0  0  0
 23 17  1  0  0  0  0
 26 21  1  0  0  0  0
 26 28  2  0  0  0  0
 26 29  1  0  0  0  0
 27 26  2  0  0  0  0
 30 32  1  0  0  0  0
 31 30  1  0  0  0  0
 33 30  1  0  0  0  0
M  RAD  3   3   2  14   2  15   3
M  END
