Coordinates from ORCA-job p-NO2-Ph-N2-H-OTs-B3LYPG-6-31G_dp-scan-d09-49-n400
 OpenBabel08281820503D

 33 34  0  0  1  0  0  0  0  0999 V2000
    1.9965    0.7900   -1.6858 C   0  0  0  0  0  0  0  0  0  0  0  0
    2.4813    0.3439   -3.0469 C   0  0  1  0  0  0  0  0  0  0  0  0
    1.4732    0.7634   -4.1311 C   0  0  0  0  0  0  0  0  0  0  0  0
    0.3036    1.5531   -3.8575 C   0  0  0  0  0  0  0  0  0  0  0  0
   -0.0012    1.9299   -2.5867 C   0  0  0  0  0  0  0  0  0  0  0  0
    0.8537    1.4679   -1.5057 C   0  0  0  0  0  0  0  0  0  0  0  0
    2.5999    0.5264   -0.8261 H   0  0  0  0  0  0  0  0  0  0  0  0
    2.4882   -0.7561   -3.0011 H   0  0  0  0  0  0  0  0  0  0  0  0
   -0.3191    1.8569   -4.6930 H   0  0  0  0  0  0  0  0  0  0  0  0
   -0.8785    2.5153   -2.3506 H   0  0  0  0  0  0  0  0  0  0  0  0
    0.4617    1.8233   -0.1285 N   0  0  0  0  0  0  0  0  0  0  0  0
   -0.5303    2.5415   -0.0045 O   0  0  0  0  0  0  0  0  0  0  0  0
    1.1305    1.3781    0.7997 O   0  0  0  0  0  0  0  0  0  0  0  0
    1.7165    0.3888   -5.3615 N   0  0  0  0  0  0  0  0  0  0  0  0
    1.9642    0.0373   -6.4214 N   0  0  0  0  0  0  0  0  0  0  0  0
    5.8547    2.1463   -3.8391 C   0  0  0  0  0  0  0  0  0  0  0  0
    6.6249    1.0468   -4.2080 C   0  0  0  0  0  0  0  0  0  0  0  0
    6.0854   -0.2397   -4.1716 C   0  0  0  0  0  0  0  0  0  0  0  0
    4.7512   -0.3739   -3.7678 C   0  0  0  0  0  0  0  0  0  0  0  0
    3.9428    0.7050   -3.3868 C   0  0  0  0  0  0  0  0  0  0  0  0
    4.5276    1.9927   -3.4283 C   0  0  0  0  0  0  0  0  0  0  0  0
    6.2745    3.1448   -3.8687 H   0  0  0  0  0  0  0  0  0  0  0  0
    7.6518    1.1981   -4.5275 H   0  0  0  0  0  0  0  0  0  0  0  0
    4.3148   -1.3705   -3.7517 H   0  0  0  0  0  0  0  0  0  0  0  0
    1.5648    3.3098   -3.3648 H   0  0  0  0  0  0  0  0  0  0  0  0
    3.7501    3.5420   -2.9020 S   0  0  0  0  0  0  0  0  0  0  0  0
    2.4633    3.6766   -3.8838 O   0  0  0  0  0  0  0  0  0  0  0  0
    4.6456    4.6270   -3.2772 O   0  0  0  0  0  0  0  0  0  0  0  0
    3.2862    3.4014   -1.5219 O   0  0  0  0  0  0  0  0  0  0  0  0
    6.9100   -1.4495   -4.5352 C   0  0  0  0  0  0  0  0  0  0  0  0
    7.6731   -1.2016   -5.2781 H   0  0  0  0  0  0  0  0  0  0  0  0
    7.4286   -1.8458   -3.6536 H   0  0  0  0  0  0  0  0  0  0  0  0
    6.2887   -2.2546   -4.9375 H   0  0  0  0  0  0  0  0  0  0  0  0
  1  6  2  0  0  0  0
  1  7  1  0  0  0  0
  2  8  1  1  0  0  0
  2  1  1  0  0  0  0
  3  4  2  0  0  0  0
  3  2  1  0  0  0  0
  4  5  1  0  0  0  0
  5 10  1  0  0  0  0
  5  6  1  0  0  0  0
  6 11  1  0  0  0  0
  9  4  1  0  0  0  0
 11 12  2  0  0  0  0
 11 13  2  0  0  0  0
 14  3  1  0  0  0  0
 15 14  1  0  0  0  0
 16 21  2  0  0  0  0
 17 18  2  0  0  0  0
 17 16  1  0  0  0  0
 18 19  1  0  0  0  0
 19 24  1  0  0  0  0
 19 20  2  0  0  0  0
 20  2  1  0  0  0  0
 21 20  1  0  0  0  0
 21 26  1  0  0  0  0
 22 16  1  0  0  0  0
 23 17  1  0  0  0  0
 26 29  2  0  0  0  0
 27 25  1  0  0  0  0
 27 26  1  0  0  0  0
 28 26  2  0  0  0  0
 30 18  1  0  0  0  0
 30 32  1  0  0  0  0
 31 30  1  0  0  0  0
 33 30  1  0  0  0  0
M  RAD  3   5   2  14   2  15   3
M  END
