Coordinates from ORCA-job p-NO2-Ph-N2-H-OTs-B3LYPG-6-31G_dp-scan-d09-49-n400
 OpenBabel08281820503D

 33 35  0  0  1  0  0  0  0  0999 V2000
    2.0882    0.4133   -1.9903 C   0  0  0  0  0  0  0  0  0  0  0  0
    2.3643    0.3943   -3.4803 C   0  0  1  0  0  0  0  0  0  0  0  0
    1.3989    1.3193   -4.1774 C   0  0  1  0  0  0  0  0  0  0  0  0
    1.0560    2.5999   -3.4953 C   0  0  1  0  0  0  0  0  0  0  0  0
    0.4433    2.3317   -2.1181 C   0  0  0  0  0  0  0  0  0  0  0  0
    1.2252    1.2563   -1.4187 C   0  0  0  0  0  0  0  0  0  0  0  0
    2.6203   -0.2953   -1.3652 H   0  0  0  0  0  0  0  0  0  0  0  0
    2.1884   -0.6345   -3.8215 H   0  0  0  0  0  0  0  0  0  0  0  0
    0.4076    3.2261   -4.1111 H   0  0  0  0  0  0  0  0  0  0  0  0
   -0.6060    2.0370   -2.2344 H   0  0  0  0  0  0  0  0  0  0  0  0
    0.9999    1.1390    0.0349 N   0  0  0  0  0  0  0  0  0  0  0  0
    0.1398    1.8794    0.5131 O   0  0  0  0  0  0  0  0  0  0  0  0
    1.6552    0.3172    0.6730 O   0  0  0  0  0  0  0  0  0  0  0  0
    1.0550    1.1044   -5.4112 N   0  0  0  0  0  0  0  0  0  0  0  0
    0.7234    0.8851   -6.4830 N   0  0  0  0  0  0  0  0  0  0  0  0
    5.7922    2.1048   -4.1456 C   0  0  0  0  0  0  0  0  0  0  0  0
    6.6396    1.0069   -4.0419 C   0  0  0  0  0  0  0  0  0  0  0  0
    6.1257   -0.2694   -3.7873 C   0  0  0  0  0  0  0  0  0  0  0  0
    4.7402   -0.4005   -3.6392 C   0  0  0  0  0  0  0  0  0  0  0  0
    3.8582    0.6821   -3.7351 C   0  0  0  0  0  0  0  0  0  0  0  0
    4.4099    1.9508   -3.9972 C   0  0  0  0  0  0  0  0  0  0  0  0
    6.1951    3.0932   -4.3351 H   0  0  0  0  0  0  0  0  0  0  0  0
    7.7101    1.1457   -4.1644 H   0  0  0  0  0  0  0  0  0  0  0  0
    4.3266   -1.3871   -3.4397 H   0  0  0  0  0  0  0  0  0  0  0  0
    0.4528    3.2491   -1.5246 H   0  0  0  0  0  0  0  0  0  0  0  0
    3.4671    3.4637   -4.2871 S   0  0  0  0  0  0  0  0  0  0  0  0
    2.8687    3.4406   -5.6211 O   0  0  0  0  0  0  0  0  0  0  0  0
    4.2936    4.5851   -3.8664 O   0  0  0  0  0  0  0  0  0  0  0  0
    2.2738    3.3727   -3.1701 O   0  0  0  0  0  0  0  0  0  0  0  0
    7.0359   -1.4649   -3.6490 C   0  0  0  0  0  0  0  0  0  0  0  0
    7.9386   -1.3505   -4.2549 H   0  0  0  0  0  0  0  0  0  0  0  0
    7.3553   -1.5923   -2.6078 H   0  0  0  0  0  0  0  0  0  0  0  0
    6.5351   -2.3885   -3.9523 H   0  0  0  0  0  0  0  0  0  0  0  0
  1  6  2  0  0  0  0
  1  7  1  0  0  0  0
  2  8  1  6  0  0  0
  2  1  1  0  0  0  0
  3 14  1  6  0  0  0
  3  4  1  0  0  0  0
  3  2  1  0  0  0  0
  4  9  1  6  0  0  0
  4 29  1  0  0  0  0
  4  5  1  0  0  0  0
  5 25  1  0  0  0  0
  5  6  1  0  0  0  0
  6 11  1  0  0  0  0
 10  5  1  0  0  0  0
 11 12  2  0  0  0  0
 11 13  2  0  0  0  0
 15 14  1  0  0  0  0
 16 17  2  0  0  0  0
 16 21  1  0  0  0  0
 17 18  1  0  0  0  0
 18 30  1  0  0  0  0
 18 19  2  0  0  0  0
 19 24  1  0  0  0  0
 20 19  1  0  0  0  0
 20  2  1  0  0  0  0
 21 20  2  0  0  0  0
 22 16  1  0  0  0  0
 23 17  1  0  0  0  0
 26 21  1  0  0  0  0
 26 28  2  0  0  0  0
 26 29  1  0  0  0  0
 27 26  2  0  0  0  0
 30 32  1  0  0  0  0
 31 30  1  0  0  0  0
 33 30  1  0  0  0  0
M  RAD  3   3   2  14   2  15   3
M  END
