Coordinates from ORCA-job p-NO2-Ph-N2-H-OTs-B3LYPG-6-31G_dp-scan-d09-49-n400
 OpenBabel08281820503D

 33 35  0  0  1  0  0  0  0  0999 V2000
    1.9879    0.5263   -1.8374 C   0  0  0  0  0  0  0  0  0  0  0  0
    2.4222    0.2569   -3.2595 C   0  0  1  0  0  0  0  0  0  0  0  0
    1.4911    0.9705   -4.2156 C   0  0  1  0  0  0  0  0  0  0  0  0
    1.0298    2.3455   -3.8915 C   0  0  1  0  0  0  0  0  0  0  0  0
    0.4866    2.4639   -2.4640 C   0  0  0  0  0  0  0  0  0  0  0  0
    1.1151    1.4824   -1.5218 C   0  0  0  0  0  0  0  0  0  0  0  0
    2.4128   -0.0821   -1.0471 H   0  0  0  0  0  0  0  0  0  0  0  0
    2.3329   -0.8244   -3.4203 H   0  0  0  0  0  0  0  0  0  0  0  0
    0.2738    2.6781   -4.6043 H   0  0  0  0  0  0  0  0  0  0  0  0
   -0.6019    2.3468   -2.4642 H   0  0  0  0  0  0  0  0  0  0  0  0
    0.7320    1.6337   -0.1062 N   0  0  0  0  0  0  0  0  0  0  0  0
   -0.1029    2.5045    0.1398 O   0  0  0  0  0  0  0  0  0  0  0  0
    1.2403    0.8881    0.7285 O   0  0  0  0  0  0  0  0  0  0  0  0
    1.3275    0.5026   -5.4177 N   0  0  0  0  0  0  0  0  0  0  0  0
    1.1509    0.0559   -6.4569 N   0  0  0  0  0  0  0  0  0  0  0  0
    5.7416    2.1261   -3.9882 C   0  0  0  0  0  0  0  0  0  0  0  0
    6.6048    1.0467   -4.1640 C   0  0  0  0  0  0  0  0  0  0  0  0
    6.1475   -0.2638   -4.0088 C   0  0  0  0  0  0  0  0  0  0  0  0
    4.7936   -0.4539   -3.6988 C   0  0  0  0  0  0  0  0  0  0  0  0
    3.9001    0.6039   -3.5125 C   0  0  0  0  0  0  0  0  0  0  0  0
    4.4020    1.9148   -3.6549 C   0  0  0  0  0  0  0  0  0  0  0  0
    6.0979    3.1420   -4.1132 H   0  0  0  0  0  0  0  0  0  0  0  0
    7.6416    1.2320   -4.4288 H   0  0  0  0  0  0  0  0  0  0  0  0
    4.4167   -1.4706   -3.6084 H   0  0  0  0  0  0  0  0  0  0  0  0
    0.7166    3.4829   -2.1522 H   0  0  0  0  0  0  0  0  0  0  0  0
    3.4935    3.4381   -3.2931 S   0  0  0  0  0  0  0  0  0  0  0  0
    2.0835    3.3592   -4.1256 O   0  0  0  0  0  0  0  0  0  0  0  0
    4.1962    4.5403   -3.9330 O   0  0  0  0  0  0  0  0  0  0  0  0
    3.2108    3.4767   -1.8596 O   0  0  0  0  0  0  0  0  0  0  0  0
    7.0751   -1.4440   -4.1582 C   0  0  0  0  0  0  0  0  0  0  0  0
    7.9401   -1.1970   -4.7792 H   0  0  0  0  0  0  0  0  0  0  0  0
    7.4534   -1.7658   -3.1807 H   0  0  0  0  0  0  0  0  0  0  0  0
    6.5653   -2.3017   -4.6067 H   0  0  0  0  0  0  0  0  0  0  0  0
  1  6  2  0  0  0  0
  1  7  1  0  0  0  0
  2  8  1  6  0  0  0
  2  1  1  0  0  0  0
  3 14  1  6  0  0  0
  3  4  1  0  0  0  0
  3  2  1  0  0  0  0
  4  9  1  6  0  0  0
  4  5  1  0  0  0  0
  5 25  1  0  0  0  0
  5  6  1  0  0  0  0
  6 11  1  0  0  0  0
 10  5  1  0  0  0  0
 11 12  2  0  0  0  0
 11 13  2  0  0  0  0
 15 14  1  0  0  0  0
 16 21  2  0  0  0  0
 17 18  2  0  0  0  0
 17 16  1  0  0  0  0
 18 19  1  0  0  0  0
 19 24  1  0  0  0  0
 19 20  2  0  0  0  0
 20  2  1  0  0  0  0
 21 20  1  0  0  0  0
 21 26  1  0  0  0  0
 22 16  1  0  0  0  0
 23 17  1  0  0  0  0
 26 29  2  0  0  0  0
 27  4  1  0  0  0  0
 27 26  1  0  0  0  0
 28 26  2  0  0  0  0
 30 18  1  0  0  0  0
 30 32  1  0  0  0  0
 31 30  1  0  0  0  0
 33 30  1  0  0  0  0
M  RAD  3   3   2  14   2  15   3
M  END
