Coordinates from ORCA-job p-NO2-Ph-N2-H-OTs-B3LYPG-6-31G_dp-scan-d09-49-n400
 OpenBabel08281820503D

 33 34  0  0  1  0  0  0  0  0999 V2000
    1.9906    0.8231   -1.6726 C   0  0  0  0  0  0  0  0  0  0  0  0
    2.5220    0.3364   -2.9986 C   0  0  1  0  0  0  0  0  0  0  0  0
    1.5411    0.7547   -4.1026 C   0  0  0  0  0  0  0  0  0  0  0  0
    0.4907    1.6180   -3.9731 C   0  0  0  0  0  0  0  0  0  0  0  0
    0.1934    2.2442   -2.6858 C   0  0  0  0  0  0  0  0  0  0  0  0
    0.9006    1.5790   -1.5486 C   0  0  0  0  0  0  0  0  0  0  0  0
    2.5111    0.4901   -0.7826 H   0  0  0  0  0  0  0  0  0  0  0  0
    2.4905   -0.7614   -2.9437 H   0  0  0  0  0  0  0  0  0  0  0  0
   -0.0850    1.9086   -4.8477 H   0  0  0  0  0  0  0  0  0  0  0  0
   -0.8691    2.4241   -2.5158 H   0  0  0  0  0  0  0  0  0  0  0  0
    0.4372    1.9385   -0.2053 N   0  0  0  0  0  0  0  0  0  0  0  0
   -0.4937    2.7451   -0.1484 O   0  0  0  0  0  0  0  0  0  0  0  0
    0.9808    1.4147    0.7620 O   0  0  0  0  0  0  0  0  0  0  0  0
    1.8228    0.3077   -5.3477 N   0  0  0  0  0  0  0  0  0  0  0  0
    2.1133   -0.1129   -6.3480 N   0  0  0  0  0  0  0  0  0  0  0  0
    5.8305    2.1364   -3.8810 C   0  0  0  0  0  0  0  0  0  0  0  0
    6.5983    1.0447   -4.2762 C   0  0  0  0  0  0  0  0  0  0  0  0
    6.0805   -0.2539   -4.2202 C   0  0  0  0  0  0  0  0  0  0  0  0
    4.7636   -0.4042   -3.7756 C   0  0  0  0  0  0  0  0  0  0  0  0
    3.9702    0.6820   -3.3713 C   0  0  0  0  0  0  0  0  0  0  0  0
    4.5199    1.9810   -3.4200 C   0  0  0  0  0  0  0  0  0  0  0  0
    6.2301    3.1443   -3.9163 H   0  0  0  0  0  0  0  0  0  0  0  0
    7.6144    1.2042   -4.6274 H   0  0  0  0  0  0  0  0  0  0  0  0
    4.3414   -1.4075   -3.7322 H   0  0  0  0  0  0  0  0  0  0  0  0
    0.7302    3.2286   -2.8376 H   0  0  0  0  0  0  0  0  0  0  0  0
    3.6988    3.5048   -2.8251 S   0  0  0  0  0  0  0  0  0  0  0  0
    2.3837    3.5126   -3.5744 O   0  0  0  0  0  0  0  0  0  0  0  0
    4.6008    4.6003   -3.2140 O   0  0  0  0  0  0  0  0  0  0  0  0
    3.5208    3.2748   -1.3736 O   0  0  0  0  0  0  0  0  0  0  0  0
    6.9174   -1.4503   -4.6035 C   0  0  0  0  0  0  0  0  0  0  0  0
    7.5468   -1.2346   -5.4726 H   0  0  0  0  0  0  0  0  0  0  0  0
    7.5876   -1.7390   -3.7845 H   0  0  0  0  0  0  0  0  0  0  0  0
    6.2967   -2.3193   -4.8403 H   0  0  0  0  0  0  0  0  0  0  0  0
  1  6  2  0  0  0  0
  1  7  1  0  0  0  0
  2  8  1  1  0  0  0
  2  1  1  0  0  0  0
  3  4  2  0  0  0  0
  3  2  1  0  0  0  0
  4  5  1  0  0  0  0
  5 10  1  0  0  0  0
  5  6  1  0  0  0  0
  6 11  1  0  0  0  0
  9  4  1  0  0  0  0
 11 12  2  0  0  0  0
 11 13  2  0  0  0  0
 14  3  1  0  0  0  0
 15 14  1  0  0  0  0
 16 21  2  0  0  0  0
 17 18  2  0  0  0  0
 17 16  1  0  0  0  0
 18 19  1  0  0  0  0
 19 24  1  0  0  0  0
 19 20  2  0  0  0  0
 20  2  1  0  0  0  0
 21 20  1  0  0  0  0
 21 26  1  0  0  0  0
 22 16  1  0  0  0  0
 23 17  1  0  0  0  0
 25  5  1  0  0  0  0
 26 29  1  0  0  0  0
 27 26  2  0  0  0  0
 28 26  2  0  0  0  0
 30 18  1  0  0  0  0
 30 32  1  0  0  0  0
 31 30  1  0  0  0  0
 33 30  1  0  0  0  0
M  RAD  3  14   2  15   3  29   2
M  END
