Coordinates from ORCA-job p-NO2-Ph-N2-H-OTs-B3LYPG-6-31G_dp-scan-d09-49-n400
 OpenBabel08281820503D

 33 35  0  0  1  0  0  0  0  0999 V2000
    1.9856    0.5254   -1.8363 C   0  0  0  0  0  0  0  0  0  0  0  0
    2.4223    0.2553   -3.2576 C   0  0  1  0  0  0  0  0  0  0  0  0
    1.4930    0.9689   -4.2156 C   0  0  1  0  0  0  0  0  0  0  0  0
    1.0287    2.3423   -3.8915 C   0  0  1  0  0  0  0  0  0  0  0  0
    0.4880    2.4649   -2.4646 C   0  0  0  0  0  0  0  0  0  0  0  0
    1.1126    1.4818   -1.5219 C   0  0  0  0  0  0  0  0  0  0  0  0
    2.4084   -0.0836   -1.0454 H   0  0  0  0  0  0  0  0  0  0  0  0
    2.3333   -0.8261   -3.4179 H   0  0  0  0  0  0  0  0  0  0  0  0
    0.2739    2.6744   -4.6056 H   0  0  0  0  0  0  0  0  0  0  0  0
   -0.6015    2.3605   -2.4589 H   0  0  0  0  0  0  0  0  0  0  0  0
    0.7276    1.6332   -0.1069 N   0  0  0  0  0  0  0  0  0  0  0  0
   -0.1044    2.5071    0.1384 O   0  0  0  0  0  0  0  0  0  0  0  0
    1.2338    0.8869    0.7285 O   0  0  0  0  0  0  0  0  0  0  0  0
    1.3323    0.5013   -5.4182 N   0  0  0  0  0  0  0  0  0  0  0  0
    1.1583    0.0547   -6.4579 N   0  0  0  0  0  0  0  0  0  0  0  0
    5.7392    2.1263   -3.9907 C   0  0  0  0  0  0  0  0  0  0  0  0
    6.6030    1.0474   -4.1671 C   0  0  0  0  0  0  0  0  0  0  0  0
    6.1473   -0.2634   -4.0097 C   0  0  0  0  0  0  0  0  0  0  0  0
    4.7940   -0.4544   -3.6973 C   0  0  0  0  0  0  0  0  0  0  0  0
    3.9000    0.6028   -3.5104 C   0  0  0  0  0  0  0  0  0  0  0  0
    4.4004    1.9140   -3.6548 C   0  0  0  0  0  0  0  0  0  0  0  0
    6.0945    3.1424   -4.1171 H   0  0  0  0  0  0  0  0  0  0  0  0
    7.6392    1.2335   -4.4340 H   0  0  0  0  0  0  0  0  0  0  0  0
    4.4181   -1.4713   -3.6055 H   0  0  0  0  0  0  0  0  0  0  0  0
    0.7353    3.4831   -2.1644 H   0  0  0  0  0  0  0  0  0  0  0  0
    3.4923    3.4368   -3.2895 S   0  0  0  0  0  0  0  0  0  0  0  0
    2.0791    3.3610   -4.1171 O   0  0  0  0  0  0  0  0  0  0  0  0
    4.1933    4.5400   -3.9295 O   0  0  0  0  0  0  0  0  0  0  0  0
    3.2143    3.4732   -1.8549 O   0  0  0  0  0  0  0  0  0  0  0  0
    7.0756   -1.4429   -4.1596 C   0  0  0  0  0  0  0  0  0  0  0  0
    7.9401   -1.1953   -4.7811 H   0  0  0  0  0  0  0  0  0  0  0  0
    7.4547   -1.7643   -3.1822 H   0  0  0  0  0  0  0  0  0  0  0  0
    6.5662   -2.3010   -4.6077 H   0  0  0  0  0  0  0  0  0  0  0  0
  1  6  2  0  0  0  0
  1  7  1  0  0  0  0
  2  8  1  6  0  0  0
  2  1  1  0  0  0  0
  3 14  1  6  0  0  0
  3  4  1  0  0  0  0
  3  2  1  0  0  0  0
  4  9  1  6  0  0  0
  4  5  1  0  0  0  0
  5 10  1  0  0  0  0
  5 25  1  0  0  0  0
  5  6  1  0  0  0  0
  6 11  1  0  0  0  0
 11 12  2  0  0  0  0
 11 13  2  0  0  0  0
 15 14  1  0  0  0  0
 16 21  2  0  0  0  0
 17 18  2  0  0  0  0
 17 16  1  0  0  0  0
 18 19  1  0  0  0  0
 19 24  1  0  0  0  0
 19 20  2  0  0  0  0
 20  2  1  0  0  0  0
 21 20  1  0  0  0  0
 21 26  1  0  0  0  0
 22 16  1  0  0  0  0
 23 17  1  0  0  0  0
 26 29  2  0  0  0  0
 27  4  1  0  0  0  0
 27 26  1  0  0  0  0
 28 26  2  0  0  0  0
 30 18  1  0  0  0  0
 30 32  1  0  0  0  0
 31 30  1  0  0  0  0
 33 30  1  0  0  0  0
M  RAD  3   3   2  14   2  15   3
M  END
