Coordinates from ORCA-job p-NO2-Ph-N2-H-OTs-B3LYPG-6-31G_dp-scan-d09-49-n400
 OpenBabel08281820503D

 33 34  0  0  1  0  0  0  0  0999 V2000
    1.9821    0.7507   -1.6852 C   0  0  0  0  0  0  0  0  0  0  0  0
    2.4792    0.3026   -3.0407 C   0  0  1  0  0  0  0  0  0  0  0  0
    1.4694    0.7076   -4.1290 C   0  0  0  0  0  0  0  0  0  0  0  0
    0.3582    1.5768   -3.8870 C   0  0  0  0  0  0  0  0  0  0  0  0
    0.0934    2.0308   -2.6267 C   0  0  0  0  0  0  0  0  0  0  0  0
    0.8868    1.5054   -1.5250 C   0  0  0  0  0  0  0  0  0  0  0  0
    2.5467    0.4404   -0.8146 H   0  0  0  0  0  0  0  0  0  0  0  0
    2.4997   -0.7960   -2.9942 H   0  0  0  0  0  0  0  0  0  0  0  0
   -0.2421    1.9007   -4.7314 H   0  0  0  0  0  0  0  0  0  0  0  0
   -0.7494    2.6722   -2.4094 H   0  0  0  0  0  0  0  0  0  0  0  0
    0.4856    1.8846   -0.1585 N   0  0  0  0  0  0  0  0  0  0  0  0
   -0.4568    2.6700   -0.0582 O   0  0  0  0  0  0  0  0  0  0  0  0
    1.0980    1.3909    0.7835 O   0  0  0  0  0  0  0  0  0  0  0  0
    1.6842    0.2729   -5.3476 N   0  0  0  0  0  0  0  0  0  0  0  0
    1.9072   -0.1363   -6.3900 N   0  0  0  0  0  0  0  0  0  0  0  0
    5.8247    2.1554   -3.8214 C   0  0  0  0  0  0  0  0  0  0  0  0
    6.6061    1.0698   -4.2085 C   0  0  0  0  0  0  0  0  0  0  0  0
    6.0836   -0.2238   -4.1848 C   0  0  0  0  0  0  0  0  0  0  0  0
    4.7535   -0.3782   -3.7756 C   0  0  0  0  0  0  0  0  0  0  0  0
    3.9353    0.6881   -3.3787 C   0  0  0  0  0  0  0  0  0  0  0  0
    4.5015    1.9849   -3.4049 C   0  0  0  0  0  0  0  0  0  0  0  0
    6.2327    3.1591   -3.8396 H   0  0  0  0  0  0  0  0  0  0  0  0
    7.6296    1.2376   -4.5310 H   0  0  0  0  0  0  0  0  0  0  0  0
    4.3293   -1.3803   -3.7678 H   0  0  0  0  0  0  0  0  0  0  0  0
    1.4601    3.1892   -3.2998 H   0  0  0  0  0  0  0  0  0  0  0  0
    3.7114    3.5250   -2.8518 S   0  0  0  0  0  0  0  0  0  0  0  0
    2.4258    3.6665   -3.8072 O   0  0  0  0  0  0  0  0  0  0  0  0
    4.6060    4.6167   -3.2166 O   0  0  0  0  0  0  0  0  0  0  0  0
    3.2869    3.3565   -1.4608 O   0  0  0  0  0  0  0  0  0  0  0  0
    6.9202   -1.4201   -4.5658 C   0  0  0  0  0  0  0  0  0  0  0  0
    7.6973   -1.1489   -5.2857 H   0  0  0  0  0  0  0  0  0  0  0  0
    7.4217   -1.8411   -3.6858 H   0  0  0  0  0  0  0  0  0  0  0  0
    6.3102   -2.2153   -5.0042 H   0  0  0  0  0  0  0  0  0  0  0  0
  1  6  2  0  0  0  0
  1  7  1  0  0  0  0
  2  8  1  1  0  0  0
  2  1  1  0  0  0  0
  3  4  2  0  0  0  0
  3  2  1  0  0  0  0
  4  5  1  0  0  0  0
  5 10  1  0  0  0  0
  5  6  1  0  0  0  0
  6 11  1  0  0  0  0
  9  4  1  0  0  0  0
 11 12  2  0  0  0  0
 11 13  2  0  0  0  0
 14  3  1  0  0  0  0
 15 14  1  0  0  0  0
 16 21  2  0  0  0  0
 17 18  2  0  0  0  0
 17 16  1  0  0  0  0
 18 19  1  0  0  0  0
 19 24  1  0  0  0  0
 19 20  2  0  0  0  0
 20  2  1  0  0  0  0
 21 20  1  0  0  0  0
 21 26  1  0  0  0  0
 22 16  1  0  0  0  0
 23 17  1  0  0  0  0
 26 29  2  0  0  0  0
 27 25  1  0  0  0  0
 27 26  1  0  0  0  0
 28 26  2  0  0  0  0
 30 18  1  0  0  0  0
 30 32  1  0  0  0  0
 31 30  1  0  0  0  0
 33 30  1  0  0  0  0
M  RAD  3   5   2  14   2  15   3
M  END
