Coordinates from ORCA-job p-NO2-Ph-N2-H-OTs-B3LYPG-6-31G_dp-scan-d09-49-n400
 OpenBabel08281820503D

 33 35  0  0  1  0  0  0  0  0999 V2000
    2.0609    0.6084   -1.8409 C   0  0  0  0  0  0  0  0  0  0  0  0
    2.4287    0.3333   -3.2788 C   0  0  1  0  0  0  0  0  0  0  0  0
    1.4631    1.0479   -4.2051 C   0  0  1  0  0  0  0  0  0  0  0  0
    1.0514    2.4507   -3.8873 C   0  0  1  0  0  0  0  0  0  0  0  0
    0.3670    2.3856   -2.4518 C   0  0  0  0  0  0  0  0  0  0  0  0
    1.1441    1.5139   -1.5038 C   0  0  0  0  0  0  0  0  0  0  0  0
    2.5804    0.0590   -1.0645 H   0  0  0  0  0  0  0  0  0  0  0  0
    2.3186   -0.7472   -3.4347 H   0  0  0  0  0  0  0  0  0  0  0  0
    0.3043    2.8165   -4.5909 H   0  0  0  0  0  0  0  0  0  0  0  0
   -0.5558    1.8441   -2.7122 H   0  0  0  0  0  0  0  0  0  0  0  0
    0.8238    1.6688   -0.0716 N   0  0  0  0  0  0  0  0  0  0  0  0
   -0.1107    2.4234    0.2062 O   0  0  0  0  0  0  0  0  0  0  0  0
    1.4781    1.0337    0.7512 O   0  0  0  0  0  0  0  0  0  0  0  0
    1.2622    0.5768   -5.3990 N   0  0  0  0  0  0  0  0  0  0  0  0
    1.0492    0.1278   -6.4313 N   0  0  0  0  0  0  0  0  0  0  0  0
    5.8183    2.1138   -3.9376 C   0  0  0  0  0  0  0  0  0  0  0  0
    6.6512    1.0102   -4.1078 C   0  0  0  0  0  0  0  0  0  0  0  0
    6.1452   -0.2872   -3.9980 C   0  0  0  0  0  0  0  0  0  0  0  0
    4.7778   -0.4378   -3.7294 C   0  0  0  0  0  0  0  0  0  0  0  0
    3.9139    0.6458   -3.5466 C   0  0  0  0  0  0  0  0  0  0  0  0
    4.4631    1.9404   -3.6500 C   0  0  0  0  0  0  0  0  0  0  0  0
    6.2090    3.1199   -4.0375 H   0  0  0  0  0  0  0  0  0  0  0  0
    7.7016    1.1655   -4.3363 H   0  0  0  0  0  0  0  0  0  0  0  0
    4.3666   -1.4432   -3.6656 H   0  0  0  0  0  0  0  0  0  0  0  0
   -0.0369    3.2484   -1.8700 H   0  0  0  0  0  0  0  0  0  0  0  0
    3.5564    3.4789   -3.3668 S   0  0  0  0  0  0  0  0  0  0  0  0
    2.2256    3.3329   -4.3065 O   0  0  0  0  0  0  0  0  0  0  0  0
    4.3134    4.5568   -3.9864 O   0  0  0  0  0  0  0  0  0  0  0  0
    3.1527    3.5595   -1.9651 O   0  0  0  0  0  0  0  0  0  0  0  0
    7.0372   -1.4946   -4.1483 C   0  0  0  0  0  0  0  0  0  0  0  0
    7.9134   -1.2706   -4.7624 H   0  0  0  0  0  0  0  0  0  0  0  0
    7.4000   -1.8332   -3.1704 H   0  0  0  0  0  0  0  0  0  0  0  0
    6.5044   -2.3336   -4.6052 H   0  0  0  0  0  0  0  0  0  0  0  0
  1  6  2  0  0  0  0
  1  7  1  0  0  0  0
  2  8  1  6  0  0  0
  2  1  1  0  0  0  0
  3 14  1  6  0  0  0
  3  4  1  0  0  0  0
  3  2  1  0  0  0  0
  4  9  1  6  0  0  0
  4  5  1  0  0  0  0
  5 25  1  0  0  0  0
  5  6  1  0  0  0  0
  6 11  1  0  0  0  0
 10  5  1  0  0  0  0
 11 12  2  0  0  0  0
 11 13  2  0  0  0  0
 15 14  1  0  0  0  0
 16 21  2  0  0  0  0
 17 18  2  0  0  0  0
 17 16  1  0  0  0  0
 18 19  1  0  0  0  0
 19 24  1  0  0  0  0
 19 20  2  0  0  0  0
 20  2  1  0  0  0  0
 21 20  1  0  0  0  0
 21 26  1  0  0  0  0
 22 16  1  0  0  0  0
 23 17  1  0  0  0  0
 26 29  2  0  0  0  0
 27  4  1  0  0  0  0
 27 26  1  0  0  0  0
 28 26  2  0  0  0  0
 30 18  1  0  0  0  0
 30 32  1  0  0  0  0
 31 30  1  0  0  0  0
 33 30  1  0  0  0  0
M  RAD  3   3   2  14   2  15   3
M  END
