Coordinates from ORCA-job p-NO2-Ph-N2-H-OTs-B3LYPG-6-31G_dp-scan-d09-49-n400
 OpenBabel08281820503D

 33 35  0  0  1  0  0  0  0  0999 V2000
    2.0897    0.4132   -1.9923 C   0  0  0  0  0  0  0  0  0  0  0  0
    2.3636    0.3954   -3.4826 C   0  0  1  0  0  0  0  0  0  0  0  0
    1.3978    1.3216   -4.1778 C   0  0  1  0  0  0  0  0  0  0  0  0
    1.0551    2.6020   -3.4948 C   0  0  1  0  0  0  0  0  0  0  0  0
    0.4437    2.3309   -2.1167 C   0  0  0  0  0  0  0  0  0  0  0  0
    1.2277    1.2561   -1.4188 C   0  0  0  0  0  0  0  0  0  0  0  0
    2.6230   -0.2955   -1.3685 H   0  0  0  0  0  0  0  0  0  0  0  0
    2.1869   -0.6328   -3.8248 H   0  0  0  0  0  0  0  0  0  0  0  0
    0.4036    3.2267   -4.1091 H   0  0  0  0  0  0  0  0  0  0  0  0
   -0.6042    2.0317   -2.2357 H   0  0  0  0  0  0  0  0  0  0  0  0
    1.0050    1.1380    0.0351 N   0  0  0  0  0  0  0  0  0  0  0  0
    0.1447    1.8771    0.5150 O   0  0  0  0  0  0  0  0  0  0  0  0
    1.6623    0.3169    0.6717 O   0  0  0  0  0  0  0  0  0  0  0  0
    1.0511    1.1067   -5.4109 N   0  0  0  0  0  0  0  0  0  0  0  0
    0.7175    0.8876   -6.4821 N   0  0  0  0  0  0  0  0  0  0  0  0
    5.7926    2.1051   -4.1430 C   0  0  0  0  0  0  0  0  0  0  0  0
    6.6396    1.0069   -4.0383 C   0  0  0  0  0  0  0  0  0  0  0  0
    6.1250   -0.2695   -3.7856 C   0  0  0  0  0  0  0  0  0  0  0  0
    4.7392   -0.4004   -3.6401 C   0  0  0  0  0  0  0  0  0  0  0  0
    3.8577    0.6825   -3.7369 C   0  0  0  0  0  0  0  0  0  0  0  0
    4.4099    1.9511   -3.9974 C   0  0  0  0  0  0  0  0  0  0  0  0
    6.1959    3.0934   -4.3315 H   0  0  0  0  0  0  0  0  0  0  0  0
    7.7103    1.1457   -4.1585 H   0  0  0  0  0  0  0  0  0  0  0  0
    4.3250   -1.3869   -3.4417 H   0  0  0  0  0  0  0  0  0  0  0  0
    0.4457    3.2451   -1.5177 H   0  0  0  0  0  0  0  0  0  0  0  0
    3.4681    3.4637   -4.2920 S   0  0  0  0  0  0  0  0  0  0  0  0
    2.8761    3.4373   -5.6289 O   0  0  0  0  0  0  0  0  0  0  0  0
    4.2934    4.5859   -3.8712 O   0  0  0  0  0  0  0  0  0  0  0  0
    2.2725    3.3769   -3.1755 O   0  0  0  0  0  0  0  0  0  0  0  0
    7.0347   -1.4653   -3.6465 C   0  0  0  0  0  0  0  0  0  0  0  0
    7.9382   -1.3509   -4.2513 H   0  0  0  0  0  0  0  0  0  0  0  0
    7.3528   -1.5930   -2.6049 H   0  0  0  0  0  0  0  0  0  0  0  0
    6.5341   -2.3886   -3.9508 H   0  0  0  0  0  0  0  0  0  0  0  0
  1  6  2  0  0  0  0
  1  7  1  0  0  0  0
  2  8  1  6  0  0  0
  2  1  1  0  0  0  0
  3 14  1  6  0  0  0
  3  4  1  0  0  0  0
  3  2  1  0  0  0  0
  4  9  1  6  0  0  0
  4 29  1  0  0  0  0
  4  5  1  0  0  0  0
  5 25  1  0  0  0  0
  5  6  1  0  0  0  0
  6 11  1  0  0  0  0
 10  5  1  0  0  0  0
 11 12  2  0  0  0  0
 11 13  2  0  0  0  0
 15 14  1  0  0  0  0
 16 17  2  0  0  0  0
 16 21  1  0  0  0  0
 17 18  1  0  0  0  0
 18 30  1  0  0  0  0
 18 19  2  0  0  0  0
 19 24  1  0  0  0  0
 20 19  1  0  0  0  0
 20  2  1  0  0  0  0
 21 20  2  0  0  0  0
 22 16  1  0  0  0  0
 23 17  1  0  0  0  0
 26 21  1  0  0  0  0
 26 28  2  0  0  0  0
 26 29  1  0  0  0  0
 27 26  2  0  0  0  0
 30 32  1  0  0  0  0
 31 30  1  0  0  0  0
 33 30  1  0  0  0  0
M  RAD  3   3   2  14   2  15   3
M  END
