Coordinates from ORCA-job p-NO2-Ph-N2-H-OTs-B3LYPG-6-31G_dp-scan-d09-49-n400
 OpenBabel08281820503D

 33 34  0  0  1  0  0  0  0  0999 V2000
    2.0664    0.4345   -1.9328 C   0  0  0  0  0  0  0  0  0  0  0  0
    2.3629    0.3592   -3.4128 C   0  0  1  0  0  0  0  0  0  0  0  0
    1.3564    1.2114   -4.1619 C   0  0  1  0  0  0  0  0  0  0  0  0
    0.6499    2.2345   -3.5880 C   0  0  0  0  0  0  0  0  0  0  0  0
    0.3745    2.2881   -2.1312 C   0  0  0  0  0  0  0  0  0  0  0  0
    1.1759    1.2657   -1.3919 C   0  0  0  0  0  0  0  0  0  0  0  0
    2.6229   -0.2351   -1.2865 H   0  0  0  0  0  0  0  0  0  0  0  0
    2.2283   -0.6901   -3.7080 H   0  0  0  0  0  0  0  0  0  0  0  0
    0.1534    2.9578   -4.2253 H   0  0  0  0  0  0  0  0  0  0  0  0
   -0.7002    2.1956   -1.9291 H   0  0  0  0  0  0  0  0  0  0  0  0
    0.9644    1.2203    0.0637 N   0  0  0  0  0  0  0  0  0  0  0  0
    0.1164    1.9933    0.5109 O   0  0  0  0  0  0  0  0  0  0  0  0
    1.6185    0.4237    0.7327 O   0  0  0  0  0  0  0  0  0  0  0  0
    1.4085    1.1593   -5.5125 N   0  0  0  0  0  0  0  0  0  0  0  0
    1.4219    0.9920   -6.6218 N   0  0  0  0  0  0  0  0  0  0  0  0
    5.7701    2.1116   -4.0837 C   0  0  0  0  0  0  0  0  0  0  0  0
    6.6137    1.0057   -4.0369 C   0  0  0  0  0  0  0  0  0  0  0  0
    6.0984   -0.2777   -3.8306 C   0  0  0  0  0  0  0  0  0  0  0  0
    4.7146   -0.4016   -3.6723 C   0  0  0  0  0  0  0  0  0  0  0  0
    3.8436    0.6970   -3.7013 C   0  0  0  0  0  0  0  0  0  0  0  0
    4.3883    1.9826   -3.9177 C   0  0  0  0  0  0  0  0  0  0  0  0
    6.1681    3.1063   -4.2504 H   0  0  0  0  0  0  0  0  0  0  0  0
    7.6836    1.1428   -4.1716 H   0  0  0  0  0  0  0  0  0  0  0  0
    4.2965   -1.3942   -3.5122 H   0  0  0  0  0  0  0  0  0  0  0  0
    0.6947    3.2987   -1.8674 H   0  0  0  0  0  0  0  0  0  0  0  0
    3.4294    3.5264   -4.1132 S   0  0  0  0  0  0  0  0  0  0  0  0
    2.6603    3.3609   -5.3710 O   0  0  0  0  0  0  0  0  0  0  0  0
    4.4051    4.6195   -4.0691 O   0  0  0  0  0  0  0  0  0  0  0  0
    2.4605    3.5127   -2.9521 O   0  0  0  0  0  0  0  0  0  0  0  0
    7.0021   -1.4847   -3.7589 C   0  0  0  0  0  0  0  0  0  0  0  0
    7.8595   -1.3795   -4.4299 H   0  0  0  0  0  0  0  0  0  0  0  0
    7.3982   -1.6189   -2.7452 H   0  0  0  0  0  0  0  0  0  0  0  0
    6.4712   -2.4028   -4.0263 H   0  0  0  0  0  0  0  0  0  0  0  0
  1  6  2  0  0  0  0
  1  7  1  0  0  0  0
  2  8  1  6  0  0  0
  2  1  1  0  0  0  0
  3 14  1  6  0  0  0
  3  4  1  0  0  0  0
  3  2  1  0  0  0  0
  4  5  1  0  0  0  0
  5 10  1  0  0  0  0
  5 25  1  0  0  0  0
  5  6  1  0  0  0  0
  6 11  1  0  0  0  0
  9  4  1  0  0  0  0
 11 12  2  0  0  0  0
 11 13  2  0  0  0  0
 15 14  1  0  0  0  0
 16 17  2  0  0  0  0
 16 21  1  0  0  0  0
 17 18  1  0  0  0  0
 18 30  1  0  0  0  0
 18 19  2  0  0  0  0
 19 24  1  0  0  0  0
 20 19  1  0  0  0  0
 20  2  1  0  0  0  0
 21 20  2  0  0  0  0
 22 16  1  0  0  0  0
 23 17  1  0  0  0  0
 26 28  2  0  0  0  0
 26 21  1  0  0  0  0
 26 29  1  0  0  0  0
 27 26  2  0  0  0  0
 30 32  1  0  0  0  0
 31 30  1  0  0  0  0
 33 30  1  0  0  0  0
M  RAD  5   3   2   4   2  14   2  15   3  29   2
M  END
