Coordinates from ORCA-job p-NO2-Ph-N2-H-OTs-B3LYPG-6-31G_dp-scan-d09-49-n400
 OpenBabel08281820503D

 33 35  0  0  1  0  0  0  0  0999 V2000
    2.0939    0.4134   -1.9978 C   0  0  0  0  0  0  0  0  0  0  0  0
    2.3616    0.3990   -3.4891 C   0  0  1  0  0  0  0  0  0  0  0  0
    1.3946    1.3282   -4.1791 C   0  0  1  0  0  0  0  0  0  0  0  0
    1.0523    2.6083   -3.4936 C   0  0  1  0  0  0  0  0  0  0  0  0
    0.4443    2.3283   -2.1129 C   0  0  0  0  0  0  0  0  0  0  0  0
    1.2350    1.2555   -1.4193 C   0  0  0  0  0  0  0  0  0  0  0  0
    2.6312   -0.2955   -1.3777 H   0  0  0  0  0  0  0  0  0  0  0  0
    2.1823   -0.6280   -3.8339 H   0  0  0  0  0  0  0  0  0  0  0  0
    0.3917    3.2282   -4.1033 H   0  0  0  0  0  0  0  0  0  0  0  0
   -0.5989    2.0152   -2.2403 H   0  0  0  0  0  0  0  0  0  0  0  0
    1.0198    1.1355    0.0358 N   0  0  0  0  0  0  0  0  0  0  0  0
    0.1589    1.8705    0.5209 O   0  0  0  0  0  0  0  0  0  0  0  0
    1.6835    0.3164    0.6684 O   0  0  0  0  0  0  0  0  0  0  0  0
    1.0401    1.1133   -5.4100 N   0  0  0  0  0  0  0  0  0  0  0  0
    0.7006    0.8949   -6.4794 N   0  0  0  0  0  0  0  0  0  0  0  0
    5.7937    2.1058   -4.1355 C   0  0  0  0  0  0  0  0  0  0  0  0
    6.6395    1.0071   -4.0278 C   0  0  0  0  0  0  0  0  0  0  0  0
    6.1228   -0.2697   -3.7808 C   0  0  0  0  0  0  0  0  0  0  0  0
    4.7363   -0.4000   -3.6427 C   0  0  0  0  0  0  0  0  0  0  0  0
    3.8560    0.6838   -3.7422 C   0  0  0  0  0  0  0  0  0  0  0  0
    4.4102    1.9522   -3.9978 C   0  0  0  0  0  0  0  0  0  0  0  0
    6.1984    3.0942   -4.3211 H   0  0  0  0  0  0  0  0  0  0  0  0
    7.7110    1.1455   -4.1416 H   0  0  0  0  0  0  0  0  0  0  0  0
    4.3204   -1.3866   -3.4476 H   0  0  0  0  0  0  0  0  0  0  0  0
    0.4236    3.2328   -1.4975 H   0  0  0  0  0  0  0  0  0  0  0  0
    3.4711    3.4636   -4.3060 S   0  0  0  0  0  0  0  0  0  0  0  0
    2.8987    3.4280   -5.6520 O   0  0  0  0  0  0  0  0  0  0  0  0
    4.2931    4.5881   -3.8846 O   0  0  0  0  0  0  0  0  0  0  0  0
    2.2685    3.3892   -3.1915 O   0  0  0  0  0  0  0  0  0  0  0  0
    7.0312   -1.4663   -3.6395 C   0  0  0  0  0  0  0  0  0  0  0  0
    7.9365   -1.3524   -4.2416 H   0  0  0  0  0  0  0  0  0  0  0  0
    7.3461   -1.5947   -2.5971 H   0  0  0  0  0  0  0  0  0  0  0  0
    6.5307   -2.3891   -3.9458 H   0  0  0  0  0  0  0  0  0  0  0  0
  1  6  2  0  0  0  0
  1  7  1  0  0  0  0
  2  8  1  6  0  0  0
  2  1  1  0  0  0  0
  3 14  1  6  0  0  0
  3  4  1  0  0  0  0
  3  2  1  0  0  0  0
  4  9  1  6  0  0  0
  4 29  1  0  0  0  0
  4  5  1  0  0  0  0
  5 25  1  0  0  0  0
  5  6  1  0  0  0  0
  6 11  1  0  0  0  0
 10  5  1  0  0  0  0
 11 12  2  0  0  0  0
 11 13  2  0  0  0  0
 15 14  1  0  0  0  0
 16 17  2  0  0  0  0
 16 21  1  0  0  0  0
 17 18  1  0  0  0  0
 18 19  2  0  0  0  0
 18 30  1  0  0  0  0
 19 24  1  0  0  0  0
 20 19  1  0  0  0  0
 20  2  1  0  0  0  0
 21 20  2  0  0  0  0
 22 16  1  0  0  0  0
 23 17  1  0  0  0  0
 26 21  1  0  0  0  0
 26 28  2  0  0  0  0
 26 29  1  0  0  0  0
 27 26  2  0  0  0  0
 30 32  1  0  0  0  0
 31 30  1  0  0  0  0
 33 30  1  0  0  0  0
M  RAD  3   3   2  14   2  15   3
M  END
