Coordinates from ORCA-job p-NO2-Ph-N2-H-OTs-B3LYPG-6-31G_dp-scan-d09-49-n400
 OpenBabel08281820503D

 33 35  0  0  1  0  0  0  0  0999 V2000
    2.0762    0.4160   -1.9711 C   0  0  0  0  0  0  0  0  0  0  0  0
    2.3708    0.3845   -3.4581 C   0  0  1  0  0  0  0  0  0  0  0  0
    1.4099    1.2992   -4.1726 C   0  0  1  0  0  0  0  0  0  0  0  0
    1.0646    2.5810   -3.4991 C   0  0  1  0  0  0  0  0  0  0  0  0
    0.4381    2.3380   -2.1313 C   0  0  0  0  0  0  0  0  0  0  0  0
    1.2028    1.2605   -1.4162 C   0  0  0  0  0  0  0  0  0  0  0  0
    2.5982   -0.2895   -1.3341 H   0  0  0  0  0  0  0  0  0  0  0  0
    2.2022   -0.6486   -3.7895 H   0  0  0  0  0  0  0  0  0  0  0  0
    0.4441    3.2205   -4.1287 H   0  0  0  0  0  0  0  0  0  0  0  0
   -0.6213    2.0781   -2.2299 H   0  0  0  0  0  0  0  0  0  0  0  0
    0.9558    1.1516    0.0340 N   0  0  0  0  0  0  0  0  0  0  0  0
    0.0925    1.8990    0.4949 O   0  0  0  0  0  0  0  0  0  0  0  0
    1.5915    0.3242    0.6846 O   0  0  0  0  0  0  0  0  0  0  0  0
    1.0910    1.0836   -5.4130 N   0  0  0  0  0  0  0  0  0  0  0  0
    0.7785    0.8618   -6.4900 N   0  0  0  0  0  0  0  0  0  0  0  0
    5.7887    2.1020   -4.1680 C   0  0  0  0  0  0  0  0  0  0  0  0
    6.6394    1.0056   -4.0749 C   0  0  0  0  0  0  0  0  0  0  0  0
    6.1319   -0.2697   -3.8033 C   0  0  0  0  0  0  0  0  0  0  0  0
    4.7492   -0.4020   -3.6315 C   0  0  0  0  0  0  0  0  0  0  0  0
    3.8635    0.6783   -3.7179 C   0  0  0  0  0  0  0  0  0  0  0  0
    4.4095    1.9475   -3.9948 C   0  0  0  0  0  0  0  0  0  0  0  0
    6.1876    3.0903   -4.3661 H   0  0  0  0  0  0  0  0  0  0  0  0
    7.7073    1.1451   -4.2175 H   0  0  0  0  0  0  0  0  0  0  0  0
    4.3404   -1.3885   -3.4219 H   0  0  0  0  0  0  0  0  0  0  0  0
    0.5042    3.2798   -1.5869 H   0  0  0  0  0  0  0  0  0  0  0  0
    3.4604    3.4648   -4.2425 S   0  0  0  0  0  0  0  0  0  0  0  0
    2.8104    3.4748   -5.5498 O   0  0  0  0  0  0  0  0  0  0  0  0
    4.2961    4.5773   -3.8170 O   0  0  0  0  0  0  0  0  0  0  0  0
    2.2846    3.3355   -3.1232 O   0  0  0  0  0  0  0  0  0  0  0  0
    7.0462   -1.4629   -3.6736 C   0  0  0  0  0  0  0  0  0  0  0  0
    7.9365   -1.3522   -4.2984 H   0  0  0  0  0  0  0  0  0  0  0  0
    7.3867   -1.5813   -2.6380 H   0  0  0  0  0  0  0  0  0  0  0  0
    6.5407   -2.3896   -3.9592 H   0  0  0  0  0  0  0  0  0  0  0  0
  1  6  2  0  0  0  0
  1  7  1  0  0  0  0
  2  8  1  6  0  0  0
  2  1  1  0  0  0  0
  3 14  1  6  0  0  0
  3  4  1  0  0  0  0
  3  2  1  0  0  0  0
  4  9  1  6  0  0  0
  4 29  1  0  0  0  0
  4  5  1  0  0  0  0
  5 25  1  0  0  0  0
  5  6  1  0  0  0  0
  6 11  1  0  0  0  0
 10  5  1  0  0  0  0
 11 12  2  0  0  0  0
 11 13  2  0  0  0  0
 15 14  1  0  0  0  0
 16 17  2  0  0  0  0
 16 21  1  0  0  0  0
 17 18  1  0  0  0  0
 18 30  1  0  0  0  0
 18 19  2  0  0  0  0
 19 24  1  0  0  0  0
 20 19  1  0  0  0  0
 20  2  1  0  0  0  0
 21 20  2  0  0  0  0
 22 16  1  0  0  0  0
 23 17  1  0  0  0  0
 26 21  1  0  0  0  0
 26 28  2  0  0  0  0
 26 29  1  0  0  0  0
 27 26  2  0  0  0  0
 30 32  1  0  0  0  0
 31 30  1  0  0  0  0
 33 30  1  0  0  0  0
M  RAD  3   3   2  14   2  15   3
M  END
