Coordinates from ORCA-job p-NO2-Ph-N2-H-OTs-B3LYPG-6-31G_dp-scan-d09-49-n400
 OpenBabel08281820503D

 33 35  0  0  1  0  0  0  0  0999 V2000
    1.9550    0.5296   -1.8101 C   0  0  0  0  0  0  0  0  0  0  0  0
    2.4258    0.2393   -3.2179 C   0  0  1  0  0  0  0  0  0  0  0  0
    1.5282    0.9456   -4.2107 C   0  0  1  0  0  0  0  0  0  0  0  0
    1.0108    2.2904   -3.8912 C   0  0  1  0  0  0  0  0  0  0  0  0
    0.4806    2.4681   -2.4755 C   0  0  0  0  0  0  0  0  0  0  0  0
    1.0711    1.4849   -1.5182 C   0  0  0  0  0  0  0  0  0  0  0  0
    2.3610   -0.0721   -1.0049 H   0  0  0  0  0  0  0  0  0  0  0  0
    2.3393   -0.8446   -3.3632 H   0  0  0  0  0  0  0  0  0  0  0  0
    0.2909    2.6271   -4.6379 H   0  0  0  0  0  0  0  0  0  0  0  0
   -0.6074    2.5127   -2.4072 H   0  0  0  0  0  0  0  0  0  0  0  0
    0.6649    1.6472   -0.1092 N   0  0  0  0  0  0  0  0  0  0  0  0
   -0.1528    2.5377    0.1205 O   0  0  0  0  0  0  0  0  0  0  0  0
    1.1410    0.8908    0.7349 O   0  0  0  0  0  0  0  0  0  0  0  0
    1.4271    0.4846   -5.4236 N   0  0  0  0  0  0  0  0  0  0  0  0
    1.3096    0.0415   -6.4720 N   0  0  0  0  0  0  0  0  0  0  0  0
    5.7061    2.1263   -4.0299 C   0  0  0  0  0  0  0  0  0  0  0  0
    6.5754    1.0537   -4.2212 C   0  0  0  0  0  0  0  0  0  0  0  0
    6.1404   -0.2596   -4.0312 C   0  0  0  0  0  0  0  0  0  0  0  0
    4.7988   -0.4618   -3.6758 C   0  0  0  0  0  0  0  0  0  0  0  0
    3.9010    0.5884   -3.4745 C   0  0  0  0  0  0  0  0  0  0  0  0
    4.3815    1.9032   -3.6493 C   0  0  0  0  0  0  0  0  0  0  0  0
    6.0474    3.1447   -4.1751 H   0  0  0  0  0  0  0  0  0  0  0  0
    7.6003    1.2473   -4.5232 H   0  0  0  0  0  0  0  0  0  0  0  0
    4.4356   -1.4813   -3.5636 H   0  0  0  0  0  0  0  0  0  0  0  0
    0.9416    3.4565   -2.3828 H   0  0  0  0  0  0  0  0  0  0  0  0
    3.4884    3.4183   -3.2201 S   0  0  0  0  0  0  0  0  0  0  0  0
    2.0167    3.3906   -3.9511 O   0  0  0  0  0  0  0  0  0  0  0  0
    4.1596    4.5363   -3.8679 O   0  0  0  0  0  0  0  0  0  0  0  0
    3.2952    3.4201   -1.7709 O   0  0  0  0  0  0  0  0  0  0  0  0
    7.0764   -1.4311   -4.1947 C   0  0  0  0  0  0  0  0  0  0  0  0
    7.9318   -1.1750   -4.8251 H   0  0  0  0  0  0  0  0  0  0  0  0
    7.4683   -1.7526   -3.2224 H   0  0  0  0  0  0  0  0  0  0  0  0
    6.5687   -2.2920   -4.6395 H   0  0  0  0  0  0  0  0  0  0  0  0
  1  6  2  0  0  0  0
  1  7  1  0  0  0  0
  2  8  1  6  0  0  0
  2  1  1  0  0  0  0
  3 14  1  6  0  0  0
  3  4  1  0  0  0  0
  3  2  1  0  0  0  0
  4  9  1  6  0  0  0
  4  5  1  0  0  0  0
  5 10  1  0  0  0  0
  5 25  1  0  0  0  0
  5  6  1  0  0  0  0
  6 11  1  0  0  0  0
 11 12  2  0  0  0  0
 11 13  2  0  0  0  0
 15 14  1  0  0  0  0
 16 21  2  0  0  0  0
 17 18  2  0  0  0  0
 17 16  1  0  0  0  0
 18 19  1  0  0  0  0
 19 24  1  0  0  0  0
 19 20  2  0  0  0  0
 20  2  1  0  0  0  0
 21 20  1  0  0  0  0
 21 26  1  0  0  0  0
 22 16  1  0  0  0  0
 23 17  1  0  0  0  0
 26 29  2  0  0  0  0
 27  4  1  0  0  0  0
 27 26  1  0  0  0  0
 28 26  2  0  0  0  0
 30 18  1  0  0  0  0
 30 32  1  0  0  0  0
 31 30  1  0  0  0  0
 33 30  1  0  0  0  0
M  RAD  3   3   2  14   2  15   3
M  END
