Coordinates from ORCA-job p-NO2-Ph-N2-H-OTs-B3LYPG-6-31G_dp-scan-d09-49-n400
 OpenBabel08281820503D

 33 34  0  0  1  0  0  0  0  0999 V2000
    2.0040    0.8358   -1.6884 C   0  0  0  0  0  0  0  0  0  0  0  0
    2.4846    0.3712   -3.0452 C   0  0  1  0  0  0  0  0  0  0  0  0
    1.4805    0.7869   -4.1350 C   0  0  0  0  0  0  0  0  0  0  0  0
    0.2648    1.5047   -3.8548 C   0  0  0  0  0  0  0  0  0  0  0  0
   -0.0645    1.8506   -2.5838 C   0  0  0  0  0  0  0  0  0  0  0  0
    0.8288    1.4571   -1.5075 C   0  0  0  0  0  0  0  0  0  0  0  0
    2.6309    0.6226   -0.8317 H   0  0  0  0  0  0  0  0  0  0  0  0
    2.4818   -0.7291   -2.9856 H   0  0  0  0  0  0  0  0  0  0  0  0
   -0.3738    1.7757   -4.6895 H   0  0  0  0  0  0  0  0  0  0  0  0
   -0.9727    2.3853   -2.3451 H   0  0  0  0  0  0  0  0  0  0  0  0
    0.4385    1.8194   -0.1308 N   0  0  0  0  0  0  0  0  0  0  0  0
   -0.5846    2.4926   -0.0054 O   0  0  0  0  0  0  0  0  0  0  0  0
    1.1404    1.4254    0.7964 O   0  0  0  0  0  0  0  0  0  0  0  0
    1.7540    0.4531   -5.3699 N   0  0  0  0  0  0  0  0  0  0  0  0
    2.0275    0.1418   -6.4370 N   0  0  0  0  0  0  0  0  0  0  0  0
    5.8760    2.1375   -3.8395 C   0  0  0  0  0  0  0  0  0  0  0  0
    6.6349    1.0308   -4.2083 C   0  0  0  0  0  0  0  0  0  0  0  0
    6.0818   -0.2506   -4.1730 C   0  0  0  0  0  0  0  0  0  0  0  0
    4.7465   -0.3723   -3.7696 C   0  0  0  0  0  0  0  0  0  0  0  0
    3.9484    0.7142   -3.3881 C   0  0  0  0  0  0  0  0  0  0  0  0
    4.5468    1.9947   -3.4299 C   0  0  0  0  0  0  0  0  0  0  0  0
    6.3054    3.1319   -3.8684 H   0  0  0  0  0  0  0  0  0  0  0  0
    7.6636    1.1718   -4.5270 H   0  0  0  0  0  0  0  0  0  0  0  0
    4.3001   -1.3642   -3.7541 H   0  0  0  0  0  0  0  0  0  0  0  0
    1.6382    3.3891   -3.3424 H   0  0  0  0  0  0  0  0  0  0  0  0
    3.7833    3.5452   -2.8977 S   0  0  0  0  0  0  0  0  0  0  0  0
    2.4782    3.6736   -3.8668 O   0  0  0  0  0  0  0  0  0  0  0  0
    4.6727    4.6289   -3.2874 O   0  0  0  0  0  0  0  0  0  0  0  0
    3.3232    3.4130   -1.5159 O   0  0  0  0  0  0  0  0  0  0  0  0
    6.8957   -1.4668   -4.5389 C   0  0  0  0  0  0  0  0  0  0  0  0
    7.5948   -1.2472   -5.3511 H   0  0  0  0  0  0  0  0  0  0  0  0
    7.4898   -1.8089   -3.6825 H   0  0  0  0  0  0  0  0  0  0  0  0
    6.2589   -2.2991   -4.8500 H   0  0  0  0  0  0  0  0  0  0  0  0
  1  6  2  0  0  0  0
  1  7  1  0  0  0  0
  2  8  1  1  0  0  0
  2  1  1  0  0  0  0
  3  4  2  0  0  0  0
  3  2  1  0  0  0  0
  4  5  1  0  0  0  0
  5 10  1  0  0  0  0
  5  6  1  0  0  0  0
  6 11  1  0  0  0  0
  9  4  1  0  0  0  0
 11 12  2  0  0  0  0
 11 13  2  0  0  0  0
 14  3  1  0  0  0  0
 15 14  1  0  0  0  0
 16 21  2  0  0  0  0
 17 18  2  0  0  0  0
 17 16  1  0  0  0  0
 18 19  1  0  0  0  0
 19 24  1  0  0  0  0
 19 20  2  0  0  0  0
 20  2  1  0  0  0  0
 21 20  1  0  0  0  0
 21 26  1  0  0  0  0
 22 16  1  0  0  0  0
 23 17  1  0  0  0  0
 26 29  2  0  0  0  0
 27 25  1  0  0  0  0
 27 26  1  0  0  0  0
 28 26  2  0  0  0  0
 30 18  1  0  0  0  0
 30 32  1  0  0  0  0
 31 30  1  0  0  0  0
 33 30  1  0  0  0  0
M  RAD  3   5   2  14   2  15   3
M  END
