Coordinates from ORCA-job p-NO2-Ph-N2-H-OTs-B3LYPG-6-31G_dp-scan-d09-49-n400
 OpenBabel08281820503D

 33 35  0  0  1  0  0  0  0  0999 V2000
    2.0321    0.4415   -1.8921 C   0  0  0  0  0  0  0  0  0  0  0  0
    2.3974    0.3566   -3.3658 C   0  0  1  0  0  0  0  0  0  0  0  0
    1.4554    1.2290   -4.1513 C   0  0  1  0  0  0  0  0  0  0  0  0
    1.0954    2.5132   -3.5075 C   0  0  1  0  0  0  0  0  0  0  0  0
    0.3972    2.3505   -2.1806 C   0  0  0  0  0  0  0  0  0  0  0  0
    1.1162    1.2849   -1.4012 C   0  0  0  0  0  0  0  0  0  0  0  0
    2.5223   -0.2454   -1.2106 H   0  0  0  0  0  0  0  0  0  0  0  0
    2.2547   -0.6932   -3.6534 H   0  0  0  0  0  0  0  0  0  0  0  0
    0.5797    3.1981   -4.1781 H   0  0  0  0  0  0  0  0  0  0  0  0
   -0.6764    2.1671   -2.2685 H   0  0  0  0  0  0  0  0  0  0  0  0
    0.7908    1.2028    0.0339 N   0  0  0  0  0  0  0  0  0  0  0  0
   -0.0910    1.9641    0.4319 O   0  0  0  0  0  0  0  0  0  0  0  0
    1.3850    0.3844    0.7339 O   0  0  0  0  0  0  0  0  0  0  0  0
    1.2370    1.0139   -5.4132 N   0  0  0  0  0  0  0  0  0  0  0  0
    1.0067    0.7869   -6.5100 N   0  0  0  0  0  0  0  0  0  0  0  0
    5.7727    2.0886   -4.2604 C   0  0  0  0  0  0  0  0  0  0  0  0
    6.6317    0.9963   -4.2077 C   0  0  0  0  0  0  0  0  0  0  0  0
    6.1495   -0.2721   -3.8665 C   0  0  0  0  0  0  0  0  0  0  0  0
    4.7820   -0.4042   -3.5987 C   0  0  0  0  0  0  0  0  0  0  0  0
    3.8852    0.6695   -3.6486 C   0  0  0  0  0  0  0  0  0  0  0  0
    4.4096    1.9366   -3.9880 C   0  0  0  0  0  0  0  0  0  0  0  0
    6.1572    3.0749   -4.4953 H   0  0  0  0  0  0  0  0  0  0  0  0
    7.6857    1.1343   -4.4306 H   0  0  0  0  0  0  0  0  0  0  0  0
    4.3927   -1.3885   -3.3469 H   0  0  0  0  0  0  0  0  0  0  0  0
    0.5877    3.3505   -1.7950 H   0  0  0  0  0  0  0  0  0  0  0  0
    3.4560    3.4724   -4.0782 S   0  0  0  0  0  0  0  0  0  0  0  0
    2.6752    3.6328   -5.2984 O   0  0  0  0  0  0  0  0  0  0  0  0
    4.3219    4.5369   -3.5945 O   0  0  0  0  0  0  0  0  0  0  0  0
    2.3234    3.1934   -2.9717 O   0  0  0  0  0  0  0  0  0  0  0  0
    7.0763   -1.4587   -3.7719 C   0  0  0  0  0  0  0  0  0  0  0  0
    7.8838   -1.3927   -4.5068 H   0  0  0  0  0  0  0  0  0  0  0  0
    7.5423   -1.5101   -2.7804 H   0  0  0  0  0  0  0  0  0  0  0  0
    6.5430   -2.3997   -3.9320 H   0  0  0  0  0  0  0  0  0  0  0  0
  1  6  2  0  0  0  0
  1  7  1  0  0  0  0
  2  8  1  6  0  0  0
  2  1  1  0  0  0  0
  3 14  1  6  0  0  0
  3  4  1  0  0  0  0
  3  2  1  0  0  0  0
  4  9  1  6  0  0  0
  4 29  1  0  0  0  0
  4  5  1  0  0  0  0
  5 25  1  0  0  0  0
  5  6  1  0  0  0  0
  6 11  1  0  0  0  0
 10  5  1  0  0  0  0
 11 12  2  0  0  0  0
 11 13  2  0  0  0  0
 15 14  1  0  0  0  0
 16 17  2  0  0  0  0
 16 21  1  0  0  0  0
 17 18  1  0  0  0  0
 18 30  1  0  0  0  0
 18 19  2  0  0  0  0
 19 24  1  0  0  0  0
 20 19  1  0  0  0  0
 20  2  1  0  0  0  0
 21 20  2  0  0  0  0
 22 16  1  0  0  0  0
 23 17  1  0  0  0  0
 26 21  1  0  0  0  0
 26 28  2  0  0  0  0
 26 29  1  0  0  0  0
 27 26  2  0  0  0  0
 30 32  1  0  0  0  0
 31 30  1  0  0  0  0
 33 30  1  0  0  0  0
M  RAD  3   3   2  14   2  15   3
M  END
