Coordinates from ORCA-job p-NO2-Ph-N2-H-OTs-B3LYPG-6-31G_dp-scan-d09-49-n400
 OpenBabel08281820503D

 33 34  0  0  1  0  0  0  0  0999 V2000
    1.9992    0.8036   -1.6867 C   0  0  0  0  0  0  0  0  0  0  0  0
    2.4822    0.3516   -3.0467 C   0  0  1  0  0  0  0  0  0  0  0  0
    1.4750    0.7696   -4.1323 C   0  0  0  0  0  0  0  0  0  0  0  0
    0.2918    1.5392   -3.8565 C   0  0  0  0  0  0  0  0  0  0  0  0
   -0.0205    1.9067   -2.5857 C   0  0  0  0  0  0  0  0  0  0  0  0
    0.8465    1.4649   -1.5062 C   0  0  0  0  0  0  0  0  0  0  0  0
    2.6104    0.5553   -0.8279 H   0  0  0  0  0  0  0  0  0  0  0  0
    2.4864   -0.7485   -2.9965 H   0  0  0  0  0  0  0  0  0  0  0  0
   -0.3359    1.8334   -4.6918 H   0  0  0  0  0  0  0  0  0  0  0  0
   -0.9068    2.4780   -2.3487 H   0  0  0  0  0  0  0  0  0  0  0  0
    0.4558    1.8226   -0.1290 N   0  0  0  0  0  0  0  0  0  0  0  0
   -0.5457    2.5275   -0.0043 O   0  0  0  0  0  0  0  0  0  0  0  0
    1.1357    1.3935    0.7989 O   0  0  0  0  0  0  0  0  0  0  0  0
    1.7269    0.4060   -5.3640 N   0  0  0  0  0  0  0  0  0  0  0  0
    1.9817    0.0652   -6.4260 N   0  0  0  0  0  0  0  0  0  0  0  0
    5.8606    2.1439   -3.8401 C   0  0  0  0  0  0  0  0  0  0  0  0
    6.6277    1.0424   -4.2089 C   0  0  0  0  0  0  0  0  0  0  0  0
    6.0846   -0.2427   -4.1723 C   0  0  0  0  0  0  0  0  0  0  0  0
    4.7500   -0.3736   -3.7684 C   0  0  0  0  0  0  0  0  0  0  0  0
    3.9444    0.7075   -3.3877 C   0  0  0  0  0  0  0  0  0  0  0  0
    4.5329    1.9932   -3.4295 C   0  0  0  0  0  0  0  0  0  0  0  0
    6.2830    3.1413   -3.8695 H   0  0  0  0  0  0  0  0  0  0  0  0
    7.6551    1.1908   -4.5283 H   0  0  0  0  0  0  0  0  0  0  0  0
    4.3109   -1.3689   -3.7523 H   0  0  0  0  0  0  0  0  0  0  0  0
    1.5859    3.3344   -3.3579 H   0  0  0  0  0  0  0  0  0  0  0  0
    3.7596    3.5423   -2.9003 S   0  0  0  0  0  0  0  0  0  0  0  0
    2.4678    3.6772   -3.8794 O   0  0  0  0  0  0  0  0  0  0  0  0
    4.6536    4.6273   -3.2781 O   0  0  0  0  0  0  0  0  0  0  0  0
    3.2954    3.4027   -1.5204 O   0  0  0  0  0  0  0  0  0  0  0  0
    6.9063   -1.4544   -4.5360 C   0  0  0  0  0  0  0  0  0  0  0  0
    7.6582   -1.2121   -5.2921 H   0  0  0  0  0  0  0  0  0  0  0  0
    7.4386   -1.8408   -3.6582 H   0  0  0  0  0  0  0  0  0  0  0  0
    6.2810   -2.2646   -4.9214 H   0  0  0  0  0  0  0  0  0  0  0  0
  1  6  2  0  0  0  0
  1  7  1  0  0  0  0
  2  8  1  1  0  0  0
  2  1  1  0  0  0  0
  3  4  2  0  0  0  0
  3  2  1  0  0  0  0
  4  5  1  0  0  0  0
  5 10  1  0  0  0  0
  5  6  1  0  0  0  0
  6 11  1  0  0  0  0
  9  4  1  0  0  0  0
 11 12  2  0  0  0  0
 11 13  2  0  0  0  0
 14  3  1  0  0  0  0
 15 14  1  0  0  0  0
 16 21  2  0  0  0  0
 17 18  2  0  0  0  0
 17 16  1  0  0  0  0
 18 19  1  0  0  0  0
 19 24  1  0  0  0  0
 19 20  2  0  0  0  0
 20  2  1  0  0  0  0
 21 20  1  0  0  0  0
 21 26  1  0  0  0  0
 22 16  1  0  0  0  0
 23 17  1  0  0  0  0
 26 29  2  0  0  0  0
 27 25  1  0  0  0  0
 27 26  1  0  0  0  0
 28 26  2  0  0  0  0
 30 18  1  0  0  0  0
 30 32  1  0  0  0  0
 31 30  1  0  0  0  0
 33 30  1  0  0  0  0
M  RAD  3   5   2  14   2  15   3
M  END
