Coordinates from ORCA-job p-NO2-Ph-N2-H-OTs-B3LYPG-6-31G_dp-scan-d09-49-n400
 OpenBabel08281820503D

 33 35  0  0  1  0  0  0  0  0999 V2000
    2.0848    0.6565   -1.8306 C   0  0  0  0  0  0  0  0  0  0  0  0
    2.4351    0.3818   -3.2725 C   0  0  1  0  0  0  0  0  0  0  0  0
    1.4624    1.0966   -4.1947 C   0  0  1  0  0  0  0  0  0  0  0  0
    1.0365    2.4879   -3.8734 C   0  0  1  0  0  0  0  0  0  0  0  0
    0.2853    2.3342   -2.4176 C   0  0  0  0  0  0  0  0  0  0  0  0
    1.1245    1.5112   -1.4803 C   0  0  0  0  0  0  0  0  0  0  0  0
    2.6507    0.1429   -1.0623 H   0  0  0  0  0  0  0  0  0  0  0  0
    2.3135   -0.6987   -3.4234 H   0  0  0  0  0  0  0  0  0  0  0  0
    0.3069    2.8791   -4.5787 H   0  0  0  0  0  0  0  0  0  0  0  0
   -0.5253    1.6845   -2.7837 H   0  0  0  0  0  0  0  0  0  0  0  0
    0.8247    1.6515   -0.0408 N   0  0  0  0  0  0  0  0  0  0  0  0
   -0.1665    2.3228    0.2564 O   0  0  0  0  0  0  0  0  0  0  0  0
    1.5469    1.0784    0.7698 O   0  0  0  0  0  0  0  0  0  0  0  0
    1.2875    0.6399   -5.3997 N   0  0  0  0  0  0  0  0  0  0  0  0
    1.0967    0.2007   -6.4401 N   0  0  0  0  0  0  0  0  0  0  0  0
    5.8489    2.1069   -3.9604 C   0  0  0  0  0  0  0  0  0  0  0  0
    6.6654    0.9890   -4.1166 C   0  0  0  0  0  0  0  0  0  0  0  0
    6.1397   -0.2993   -3.9932 C   0  0  0  0  0  0  0  0  0  0  0  0
    4.7700   -0.4258   -3.7233 C   0  0  0  0  0  0  0  0  0  0  0  0
    3.9229    0.6733   -3.5535 C   0  0  0  0  0  0  0  0  0  0  0  0
    4.4911    1.9580   -3.6727 C   0  0  0  0  0  0  0  0  0  0  0  0
    6.2537    3.1062   -4.0718 H   0  0  0  0  0  0  0  0  0  0  0  0
    7.7183    1.1255   -4.3455 H   0  0  0  0  0  0  0  0  0  0  0  0
    4.3438   -1.4242   -3.6475 H   0  0  0  0  0  0  0  0  0  0  0  0
   -0.3191    3.0525   -1.7618 H   0  0  0  0  0  0  0  0  0  0  0  0
    3.5955    3.5090   -3.4245 S   0  0  0  0  0  0  0  0  0  0  0  0
    2.2925    3.3530   -4.3897 O   0  0  0  0  0  0  0  0  0  0  0  0
    4.3852    4.5722   -4.0313 O   0  0  0  0  0  0  0  0  0  0  0  0
    3.1611    3.6006   -2.0321 O   0  0  0  0  0  0  0  0  0  0  0  0
    7.0134   -1.5216   -4.1311 C   0  0  0  0  0  0  0  0  0  0  0  0
    7.8920   -1.3170   -4.7486 H   0  0  0  0  0  0  0  0  0  0  0  0
    7.3724   -1.8554   -3.1503 H   0  0  0  0  0  0  0  0  0  0  0  0
    6.4677   -2.3573   -4.5789 H   0  0  0  0  0  0  0  0  0  0  0  0
  1  6  2  0  0  0  0
  1  7  1  0  0  0  0
  2  8  1  6  0  0  0
  2  1  1  0  0  0  0
  3 14  1  6  0  0  0
  3  4  1  0  0  0  0
  3  2  1  0  0  0  0
  4  9  1  6  0  0  0
  4  5  1  0  0  0  0
  5 25  1  0  0  0  0
  5  6  1  0  0  0  0
  6 11  1  0  0  0  0
 10  5  1  0  0  0  0
 11 12  2  0  0  0  0
 11 13  2  0  0  0  0
 15 14  1  0  0  0  0
 16 21  2  0  0  0  0
 17 18  2  0  0  0  0
 17 16  1  0  0  0  0
 18 19  1  0  0  0  0
 19 24  1  0  0  0  0
 19 20  2  0  0  0  0
 20  2  1  0  0  0  0
 21 20  1  0  0  0  0
 21 26  1  0  0  0  0
 22 16  1  0  0  0  0
 23 17  1  0  0  0  0
 26 29  2  0  0  0  0
 27  4  1  0  0  0  0
 27 26  1  0  0  0  0
 28 26  2  0  0  0  0
 30 18  1  0  0  0  0
 30 32  1  0  0  0  0
 31 30  1  0  0  0  0
 33 30  1  0  0  0  0
M  RAD  3   3   2  14   2  15   3
M  END
