Coordinates from ORCA-job p-NO2-Ph-N2-H-OTs-B3LYPG-6-31G_dp-scan-d09-49-n400
 OpenBabel08281820503D

 33 35  0  0  1  0  0  0  0  0999 V2000
    2.0537    0.4262   -1.9340 C   0  0  0  0  0  0  0  0  0  0  0  0
    2.3833    0.3700   -3.4147 C   0  0  1  0  0  0  0  0  0  0  0  0
    1.4315    1.2652   -4.1633 C   0  0  1  0  0  0  0  0  0  0  0  0
    1.0789    2.5479   -3.5037 C   0  0  1  0  0  0  0  0  0  0  0  0
    0.4185    2.3443   -2.1547 C   0  0  0  0  0  0  0  0  0  0  0  0
    1.1588    1.2696   -1.4099 C   0  0  0  0  0  0  0  0  0  0  0  0
    2.5599   -0.2712   -1.2752 H   0  0  0  0  0  0  0  0  0  0  0  0
    2.2275   -0.6712   -3.7260 H   0  0  0  0  0  0  0  0  0  0  0  0
    0.5108    3.2116   -4.1551 H   0  0  0  0  0  0  0  0  0  0  0  0
   -0.6507    2.1301   -2.2408 H   0  0  0  0  0  0  0  0  0  0  0  0
    0.8723    1.1729    0.0332 N   0  0  0  0  0  0  0  0  0  0  0  0
    0.0046    1.9323    0.4647 O   0  0  0  0  0  0  0  0  0  0  0  0
    1.4884    0.3501    0.7085 O   0  0  0  0  0  0  0  0  0  0  0  0
    1.1631    1.0512   -5.4159 N   0  0  0  0  0  0  0  0  0  0  0  0
    0.8905    0.8274   -6.5033 N   0  0  0  0  0  0  0  0  0  0  0  0
    5.7822    2.0956   -4.2111 C   0  0  0  0  0  0  0  0  0  0  0  0
    6.6372    1.0014   -4.1376 C   0  0  0  0  0  0  0  0  0  0  0  0
    6.1412   -0.2711   -3.8330 C   0  0  0  0  0  0  0  0  0  0  0  0
    4.7650   -0.4037   -3.6156 C   0  0  0  0  0  0  0  0  0  0  0  0
    3.8736    0.6733   -3.6843 C   0  0  0  0  0  0  0  0  0  0  0  0
    4.4097    1.9419   -3.9903 C   0  0  0  0  0  0  0  0  0  0  0  0
    6.1742    3.0832   -4.4264 H   0  0  0  0  0  0  0  0  0  0  0  0
    7.6992    1.1406   -4.3187 H   0  0  0  0  0  0  0  0  0  0  0  0
    4.3652   -1.3894   -3.3862 H   0  0  0  0  0  0  0  0  0  0  0  0
    0.5580    3.3183   -1.6905 H   0  0  0  0  0  0  0  0  0  0  0  0
    3.4554    3.4681   -4.1621 S   0  0  0  0  0  0  0  0  0  0  0  0
    2.7323    3.5460   -5.4264 O   0  0  0  0  0  0  0  0  0  0  0  0
    4.3065    4.5603   -3.7155 O   0  0  0  0  0  0  0  0  0  0  0  0
    2.3039    3.2662   -3.0441 O   0  0  0  0  0  0  0  0  0  0  0  0
    7.0624   -1.4607   -3.7208 C   0  0  0  0  0  0  0  0  0  0  0  0
    7.9083   -1.3753   -4.4086 H   0  0  0  0  0  0  0  0  0  0  0  0
    7.4734   -1.5401   -2.7072 H   0  0  0  0  0  0  0  0  0  0  0  0
    6.5391   -2.3964   -3.9356 H   0  0  0  0  0  0  0  0  0  0  0  0
  1  6  2  0  0  0  0
  1  7  1  0  0  0  0
  2  8  1  6  0  0  0
  2  1  1  0  0  0  0
  3 14  1  6  0  0  0
  3  4  1  0  0  0  0
  3  2  1  0  0  0  0
  4  9  1  6  0  0  0
  4 29  1  0  0  0  0
  4  5  1  0  0  0  0
  5 25  1  0  0  0  0
  5  6  1  0  0  0  0
  6 11  1  0  0  0  0
 10  5  1  0  0  0  0
 11 12  2  0  0  0  0
 11 13  2  0  0  0  0
 15 14  1  0  0  0  0
 16 17  2  0  0  0  0
 16 21  1  0  0  0  0
 17 18  1  0  0  0  0
 18 30  1  0  0  0  0
 18 19  2  0  0  0  0
 19 24  1  0  0  0  0
 20 19  1  0  0  0  0
 20  2  1  0  0  0  0
 21 20  2  0  0  0  0
 22 16  1  0  0  0  0
 23 17  1  0  0  0  0
 26 21  1  0  0  0  0
 26 28  2  0  0  0  0
 26 29  1  0  0  0  0
 27 26  2  0  0  0  0
 30 32  1  0  0  0  0
 31 30  1  0  0  0  0
 33 30  1  0  0  0  0
M  RAD  3   3   2  14   2  15   3
M  END
