Coordinates from ORCA-job p-NO2-Ph-N2-H-OTs-B3LYPG-6-31G_dp-scan-d09-49-n400
 OpenBabel08281820503D

 33 35  0  0  1  0  0  0  0  0999 V2000
    2.0382    0.5741   -1.8440 C   0  0  0  0  0  0  0  0  0  0  0  0
    2.4256    0.3010   -3.2775 C   0  0  1  0  0  0  0  0  0  0  0  0
    1.4681    1.0152   -4.2102 C   0  0  1  0  0  0  0  0  0  0  0  0
    1.0492    2.4140   -3.8921 C   0  0  1  0  0  0  0  0  0  0  0  0
    0.4190    2.4194   -2.4616 C   0  0  0  0  0  0  0  0  0  0  0  0
    1.1457    1.5062   -1.5144 C   0  0  0  0  0  0  0  0  0  0  0  0
    2.5213   -0.0007   -1.0624 H   0  0  0  0  0  0  0  0  0  0  0  0
    2.3241   -0.7796   -3.4363 H   0  0  0  0  0  0  0  0  0  0  0  0
    0.2943    2.7654   -4.5961 H   0  0  0  0  0  0  0  0  0  0  0  0
   -0.5874    2.0085   -2.6258 H   0  0  0  0  0  0  0  0  0  0  0  0
    0.8041    1.6626   -0.0883 N   0  0  0  0  0  0  0  0  0  0  0  0
   -0.0939    2.4644    0.1748 O   0  0  0  0  0  0  0  0  0  0  0  0
    1.4014    0.9808    0.7411 O   0  0  0  0  0  0  0  0  0  0  0  0
    1.2695    0.5418   -5.4039 N   0  0  0  0  0  0  0  0  0  0  0  0
    1.0594    0.0913   -6.4359 N   0  0  0  0  0  0  0  0  0  0  0  0
    5.7924    2.1187   -3.9433 C   0  0  0  0  0  0  0  0  0  0  0  0
    6.6373    1.0248   -4.1172 C   0  0  0  0  0  0  0  0  0  0  0  0
    6.1479   -0.2783   -4.0010 C   0  0  0  0  0  0  0  0  0  0  0  0
    4.7838   -0.4448   -3.7247 C   0  0  0  0  0  0  0  0  0  0  0  0
    3.9081    0.6285   -3.5389 C   0  0  0  0  0  0  0  0  0  0  0  0
    4.4410    1.9297   -3.6469 C   0  0  0  0  0  0  0  0  0  0  0  0
    6.1712    3.1290   -4.0458 H   0  0  0  0  0  0  0  0  0  0  0  0
    7.6842    1.1925   -4.3527 H   0  0  0  0  0  0  0  0  0  0  0  0
    4.3848   -1.4548   -3.6580 H   0  0  0  0  0  0  0  0  0  0  0  0
    0.2253    3.3776   -1.9537 H   0  0  0  0  0  0  0  0  0  0  0  0
    3.5299    3.4617   -3.3389 S   0  0  0  0  0  0  0  0  0  0  0  0
    2.1767    3.3338   -4.2520 O   0  0  0  0  0  0  0  0  0  0  0  0
    4.2683    4.5487   -3.9641 O   0  0  0  0  0  0  0  0  0  0  0  0
    3.1579    3.5297   -1.9278 O   0  0  0  0  0  0  0  0  0  0  0  0
    7.0535   -1.4752   -4.1531 C   0  0  0  0  0  0  0  0  0  0  0  0
    7.9269   -1.2406   -4.7673 H   0  0  0  0  0  0  0  0  0  0  0  0
    7.4202   -1.8108   -3.1758 H   0  0  0  0  0  0  0  0  0  0  0  0
    6.5300   -2.3198   -4.6107 H   0  0  0  0  0  0  0  0  0  0  0  0
  1  6  2  0  0  0  0
  1  7  1  0  0  0  0
  2  8  1  6  0  0  0
  2  1  1  0  0  0  0
  3 14  1  6  0  0  0
  3  4  1  0  0  0  0
  3  2  1  0  0  0  0
  4  9  1  6  0  0  0
  4  5  1  0  0  0  0
  5 25  1  0  0  0  0
  5  6  1  0  0  0  0
  6 11  1  0  0  0  0
 10  5  1  0  0  0  0
 11 12  2  0  0  0  0
 11 13  2  0  0  0  0
 15 14  1  0  0  0  0
 16 21  2  0  0  0  0
 17 18  2  0  0  0  0
 17 16  1  0  0  0  0
 18 19  1  0  0  0  0
 19 24  1  0  0  0  0
 19 20  2  0  0  0  0
 20  2  1  0  0  0  0
 21 20  1  0  0  0  0
 21 26  1  0  0  0  0
 22 16  1  0  0  0  0
 23 17  1  0  0  0  0
 26 29  2  0  0  0  0
 27  4  1  0  0  0  0
 27 26  1  0  0  0  0
 28 26  2  0  0  0  0
 30 18  1  0  0  0  0
 30 32  1  0  0  0  0
 31 30  1  0  0  0  0
 33 30  1  0  0  0  0
M  RAD  3   3   2  14   2  15   3
M  END
