Coordinates from ORCA-job p-NO2-Ph-N2-H-OTs-B3LYPG-6-31G_dp-scan-d09-49-n400
 OpenBabel08281820503D

 33 34  0  0  1  0  0  0  0  0999 V2000
    2.0023    0.8232   -1.6877 C   0  0  0  0  0  0  0  0  0  0  0  0
    2.4837    0.3633   -3.0457 C   0  0  1  0  0  0  0  0  0  0  0  0
    1.4780    0.7793   -4.1338 C   0  0  0  0  0  0  0  0  0  0  0  0
    0.2751    1.5182   -3.8553 C   0  0  0  0  0  0  0  0  0  0  0  0
   -0.0475    1.8729   -2.5845 C   0  0  0  0  0  0  0  0  0  0  0  0
    0.8360    1.4605   -1.5070 C   0  0  0  0  0  0  0  0  0  0  0  0
    2.6235    0.5964   -0.8302 H   0  0  0  0  0  0  0  0  0  0  0  0
    2.4841   -0.7370   -2.9896 H   0  0  0  0  0  0  0  0  0  0  0  0
   -0.3594    1.7982   -4.6903 H   0  0  0  0  0  0  0  0  0  0  0  0
   -0.9469    2.4226   -2.3465 H   0  0  0  0  0  0  0  0  0  0  0  0
    0.4459    1.8214   -0.1301 N   0  0  0  0  0  0  0  0  0  0  0  0
   -0.5690    2.5070   -0.0049 O   0  0  0  0  0  0  0  0  0  0  0  0
    1.1398    1.4141    0.7974 O   0  0  0  0  0  0  0  0  0  0  0  0
    1.7427    0.4325   -5.3673 N   0  0  0  0  0  0  0  0  0  0  0  0
    2.0086    0.1080   -6.4322 N   0  0  0  0  0  0  0  0  0  0  0  0
    5.8696    2.1403   -3.8404 C   0  0  0  0  0  0  0  0  0  0  0  0
    6.6319    1.0357   -4.2093 C   0  0  0  0  0  0  0  0  0  0  0  0
    6.0830   -0.2472   -4.1732 C   0  0  0  0  0  0  0  0  0  0  0  0
    4.7480   -0.3726   -3.7693 C   0  0  0  0  0  0  0  0  0  0  0  0
    3.9468    0.7116   -3.3882 C   0  0  0  0  0  0  0  0  0  0  0  0
    4.5412    1.9942   -3.4302 C   0  0  0  0  0  0  0  0  0  0  0  0
    6.2962    3.1359   -3.8695 H   0  0  0  0  0  0  0  0  0  0  0  0
    7.6600    1.1797   -4.5285 H   0  0  0  0  0  0  0  0  0  0  0  0
    4.3046   -1.3660   -3.7535 H   0  0  0  0  0  0  0  0  0  0  0  0
    1.6173    3.3676   -3.3479 H   0  0  0  0  0  0  0  0  0  0  0  0
    3.7740    3.5440   -2.8983 S   0  0  0  0  0  0  0  0  0  0  0  0
    2.4741    3.6761   -3.8714 O   0  0  0  0  0  0  0  0  0  0  0  0
    4.6651    4.6284   -3.2828 O   0  0  0  0  0  0  0  0  0  0  0  0
    3.3121    3.4080   -1.5174 O   0  0  0  0  0  0  0  0  0  0  0  0
    6.9000   -1.4616   -4.5379 C   0  0  0  0  0  0  0  0  0  0  0  0
    7.6286   -1.2299   -5.3200 H   0  0  0  0  0  0  0  0  0  0  0  0
    7.4603   -1.8283   -3.6690 H   0  0  0  0  0  0  0  0  0  0  0  0
    6.2682   -2.2818   -4.8896 H   0  0  0  0  0  0  0  0  0  0  0  0
  1  6  2  0  0  0  0
  1  7  1  0  0  0  0
  2  8  1  1  0  0  0
  2  1  1  0  0  0  0
  3  4  2  0  0  0  0
  3  2  1  0  0  0  0
  4  5  1  0  0  0  0
  5 10  1  0  0  0  0
  5  6  1  0  0  0  0
  6 11  1  0  0  0  0
  9  4  1  0  0  0  0
 11 12  2  0  0  0  0
 11 13  2  0  0  0  0
 14  3  1  0  0  0  0
 15 14  1  0  0  0  0
 16 21  2  0  0  0  0
 17 18  2  0  0  0  0
 17 16  1  0  0  0  0
 18 19  1  0  0  0  0
 19 24  1  0  0  0  0
 19 20  2  0  0  0  0
 20  2  1  0  0  0  0
 21 20  1  0  0  0  0
 21 26  1  0  0  0  0
 22 16  1  0  0  0  0
 23 17  1  0  0  0  0
 26 29  2  0  0  0  0
 27 25  1  0  0  0  0
 27 26  1  0  0  0  0
 28 26  2  0  0  0  0
 30 18  1  0  0  0  0
 30 32  1  0  0  0  0
 31 30  1  0  0  0  0
 33 30  1  0  0  0  0
M  RAD  3   5   2  14   2  15   3
M  END
