Coordinates from ORCA-job p-NO2-Ph-N2-H-OTs-B3LYPG-6-31G_dp-scan-d09-49-n400
 OpenBabel08281820503D

 33 35  0  0  1  0  0  0  0  0999 V2000
    2.0652    0.6161   -1.8398 C   0  0  0  0  0  0  0  0  0  0  0  0
    2.4299    0.3405   -3.2783 C   0  0  1  0  0  0  0  0  0  0  0  0
    1.4627    1.0550   -4.2036 C   0  0  1  0  0  0  0  0  0  0  0  0
    1.0509    2.4578   -3.8860 C   0  0  1  0  0  0  0  0  0  0  0  0
    0.3561    2.3799   -2.4478 C   0  0  0  0  0  0  0  0  0  0  0  0
    1.1428    1.5153   -1.5010 C   0  0  0  0  0  0  0  0  0  0  0  0
    2.5913    0.0716   -1.0645 H   0  0  0  0  0  0  0  0  0  0  0  0
    2.3182   -0.7401   -3.4331 H   0  0  0  0  0  0  0  0  0  0  0  0
    0.3055    2.8263   -4.5896 H   0  0  0  0  0  0  0  0  0  0  0  0
   -0.5504    1.8187   -2.7245 H   0  0  0  0  0  0  0  0  0  0  0  0
    0.8254    1.6680   -0.0677 N   0  0  0  0  0  0  0  0  0  0  0  0
   -0.1195    2.4086    0.2129 O   0  0  0  0  0  0  0  0  0  0  0  0
    1.4874    1.0383    0.7531 O   0  0  0  0  0  0  0  0  0  0  0  0
    1.2625    0.5845   -5.3979 N   0  0  0  0  0  0  0  0  0  0  0  0
    1.0500    0.1359   -6.4305 N   0  0  0  0  0  0  0  0  0  0  0  0
    5.8235    2.1129   -3.9398 C   0  0  0  0  0  0  0  0  0  0  0  0
    6.6540    1.0072   -4.1082 C   0  0  0  0  0  0  0  0  0  0  0  0
    6.1448   -0.2889   -3.9974 C   0  0  0  0  0  0  0  0  0  0  0  0
    4.7769   -0.4360   -3.7295 C   0  0  0  0  0  0  0  0  0  0  0  0
    3.9155    0.6499   -3.5485 C   0  0  0  0  0  0  0  0  0  0  0  0
    4.4677    1.9429   -3.6531 C   0  0  0  0  0  0  0  0  0  0  0  0
    6.2163    3.1180   -4.0407 H   0  0  0  0  0  0  0  0  0  0  0  0
    7.7049    1.1598   -4.3360 H   0  0  0  0  0  0  0  0  0  0  0  0
    4.3634   -1.4404   -3.6646 H   0  0  0  0  0  0  0  0  0  0  0  0
   -0.0822    3.2217   -1.8523 H   0  0  0  0  0  0  0  0  0  0  0  0
    3.5624    3.4827   -3.3745 S   0  0  0  0  0  0  0  0  0  0  0  0
    2.2355    3.3344   -4.3186 O   0  0  0  0  0  0  0  0  0  0  0  0
    4.3233    4.5588   -3.9925 O   0  0  0  0  0  0  0  0  0  0  0  0
    3.1532    3.5649   -1.9744 O   0  0  0  0  0  0  0  0  0  0  0  0
    7.0342   -1.4985   -4.1460 C   0  0  0  0  0  0  0  0  0  0  0  0
    7.9110   -1.2773   -4.7603 H   0  0  0  0  0  0  0  0  0  0  0  0
    7.3961   -1.8366   -3.1677 H   0  0  0  0  0  0  0  0  0  0  0  0
    6.4996   -2.3370   -4.6019 H   0  0  0  0  0  0  0  0  0  0  0  0
  1  6  2  0  0  0  0
  1  7  1  0  0  0  0
  2  8  1  6  0  0  0
  2  1  1  0  0  0  0
  3 14  1  6  0  0  0
  3  4  1  0  0  0  0
  3  2  1  0  0  0  0
  4  9  1  6  0  0  0
  4  5  1  0  0  0  0
  5 25  1  0  0  0  0
  5  6  1  0  0  0  0
  6 11  1  0  0  0  0
 10  5  1  0  0  0  0
 11 12  2  0  0  0  0
 11 13  2  0  0  0  0
 15 14  1  0  0  0  0
 16 21  2  0  0  0  0
 17 18  2  0  0  0  0
 17 16  1  0  0  0  0
 18 19  1  0  0  0  0
 19 24  1  0  0  0  0
 19 20  2  0  0  0  0
 20  2  1  0  0  0  0
 21 20  1  0  0  0  0
 21 26  1  0  0  0  0
 22 16  1  0  0  0  0
 23 17  1  0  0  0  0
 26 29  2  0  0  0  0
 27  4  1  0  0  0  0
 27 26  1  0  0  0  0
 28 26  2  0  0  0  0
 30 18  1  0  0  0  0
 30 32  1  0  0  0  0
 31 30  1  0  0  0  0
 33 30  1  0  0  0  0
M  RAD  3   3   2  14   2  15   3
M  END
