Coordinates from ORCA-job p-NO2-Ph-N2-H-OTs-B3LYPG-6-31G_dp-scan-d09-49-n400
 OpenBabel08281820503D

 33 35  0  0  1  0  0  0  0  0999 V2000
    2.0412    0.5786   -1.8432 C   0  0  0  0  0  0  0  0  0  0  0  0
    2.4264    0.3050   -3.2772 C   0  0  1  0  0  0  0  0  0  0  0  0
    1.4676    1.0190   -4.2091 C   0  0  1  0  0  0  0  0  0  0  0  0
    1.0502    2.4187   -3.8916 C   0  0  1  0  0  0  0  0  0  0  0  0
    0.4130    2.4159   -2.4608 C   0  0  0  0  0  0  0  0  0  0  0  0
    1.1457    1.5076   -1.5132 C   0  0  0  0  0  0  0  0  0  0  0  0
    2.5284    0.0069   -1.0619 H   0  0  0  0  0  0  0  0  0  0  0  0
    2.3239   -0.7756   -3.4353 H   0  0  0  0  0  0  0  0  0  0  0  0
    0.2963    2.7716   -4.5957 H   0  0  0  0  0  0  0  0  0  0  0  0
   -0.5844    1.9877   -2.6373 H   0  0  0  0  0  0  0  0  0  0  0  0
    0.8058    1.6635   -0.0865 N   0  0  0  0  0  0  0  0  0  0  0  0
   -0.0972    2.4594    0.1779 O   0  0  0  0  0  0  0  0  0  0  0  0
    1.4095    0.9869    0.7425 O   0  0  0  0  0  0  0  0  0  0  0  0
    1.2682    0.5454   -5.4025 N   0  0  0  0  0  0  0  0  0  0  0  0
    1.0573    0.0947   -6.4342 N   0  0  0  0  0  0  0  0  0  0  0  0
    5.7960    2.1181   -3.9425 C   0  0  0  0  0  0  0  0  0  0  0  0
    6.6393    1.0230   -4.1163 C   0  0  0  0  0  0  0  0  0  0  0  0
    6.1478   -0.2795   -4.0010 C   0  0  0  0  0  0  0  0  0  0  0  0
    4.7834   -0.4439   -3.7254 C   0  0  0  0  0  0  0  0  0  0  0  0
    3.9091    0.6306   -3.5396 C   0  0  0  0  0  0  0  0  0  0  0  0
    4.4441    1.9310   -3.6470 C   0  0  0  0  0  0  0  0  0  0  0  0
    6.1762    3.1279   -4.0446 H   0  0  0  0  0  0  0  0  0  0  0  0
    7.6866    1.1892   -4.3511 H   0  0  0  0  0  0  0  0  0  0  0  0
    4.3829   -1.4534   -3.6591 H   0  0  0  0  0  0  0  0  0  0  0  0
    0.1916    3.3642   -1.9423 H   0  0  0  0  0  0  0  0  0  0  0  0
    3.5333    3.4636   -3.3420 S   0  0  0  0  0  0  0  0  0  0  0  0
    2.1833    3.3332   -4.2591 O   0  0  0  0  0  0  0  0  0  0  0  0
    4.2740    4.5497   -3.9660 O   0  0  0  0  0  0  0  0  0  0  0  0
    3.1565    3.5328   -1.9322 O   0  0  0  0  0  0  0  0  0  0  0  0
    7.0517   -1.4776   -4.1533 C   0  0  0  0  0  0  0  0  0  0  0  0
    7.9254   -1.2442   -4.7675 H   0  0  0  0  0  0  0  0  0  0  0  0
    7.4181   -1.8138   -3.1760 H   0  0  0  0  0  0  0  0  0  0  0  0
    6.5270   -2.3214   -4.6109 H   0  0  0  0  0  0  0  0  0  0  0  0
  1  6  2  0  0  0  0
  1  7  1  0  0  0  0
  2  8  1  6  0  0  0
  2  1  1  0  0  0  0
  3 14  1  6  0  0  0
  3  4  1  0  0  0  0
  3  2  1  0  0  0  0
  4  9  1  6  0  0  0
  4  5  1  0  0  0  0
  5 25  1  0  0  0  0
  5  6  1  0  0  0  0
  6 11  1  0  0  0  0
 10  5  1  0  0  0  0
 11 12  2  0  0  0  0
 11 13  2  0  0  0  0
 15 14  1  0  0  0  0
 16 21  2  0  0  0  0
 17 18  2  0  0  0  0
 17 16  1  0  0  0  0
 18 19  1  0  0  0  0
 19 24  1  0  0  0  0
 19 20  2  0  0  0  0
 20  2  1  0  0  0  0
 21 20  1  0  0  0  0
 21 26  1  0  0  0  0
 22 16  1  0  0  0  0
 23 17  1  0  0  0  0
 26 29  2  0  0  0  0
 27  4  1  0  0  0  0
 27 26  1  0  0  0  0
 28 26  2  0  0  0  0
 30 18  1  0  0  0  0
 30 32  1  0  0  0  0
 31 30  1  0  0  0  0
 33 30  1  0  0  0  0
M  RAD  3   3   2  14   2  15   3
M  END
