Coordinates from ORCA-job p-NO2-Ph-N2-H-OTs-B3LYPG-6-31G_dp-scan-d09-49-n400
 OpenBabel08281820503D

 33 35  0  0  1  0  0  0  0  0999 V2000
    1.9842    0.5248   -1.8357 C   0  0  0  0  0  0  0  0  0  0  0  0
    2.4222    0.2544   -3.2566 C   0  0  1  0  0  0  0  0  0  0  0  0
    1.4941    0.9678   -4.2158 C   0  0  1  0  0  0  0  0  0  0  0  0
    1.0279    2.3402   -3.8914 C   0  0  1  0  0  0  0  0  0  0  0  0
    0.4888    2.4654   -2.4648 C   0  0  0  0  0  0  0  0  0  0  0  0
    1.1114    1.4816   -1.5218 C   0  0  0  0  0  0  0  0  0  0  0  0
    2.4061   -0.0844   -1.0444 H   0  0  0  0  0  0  0  0  0  0  0  0
    2.3334   -0.8271   -3.4168 H   0  0  0  0  0  0  0  0  0  0  0  0
    0.2737    2.6722   -4.6064 H   0  0  0  0  0  0  0  0  0  0  0  0
   -0.6013    2.3687   -2.4550 H   0  0  0  0  0  0  0  0  0  0  0  0
    0.7259    1.6336   -0.1069 N   0  0  0  0  0  0  0  0  0  0  0  0
   -0.1060    2.5077    0.1378 O   0  0  0  0  0  0  0  0  0  0  0  0
    1.2292    0.8852    0.7283 O   0  0  0  0  0  0  0  0  0  0  0  0
    1.3353    0.5005   -5.4188 N   0  0  0  0  0  0  0  0  0  0  0  0
    1.1632    0.0541   -6.4588 N   0  0  0  0  0  0  0  0  0  0  0  0
    5.7376    2.1264   -3.9925 C   0  0  0  0  0  0  0  0  0  0  0  0
    6.6018    1.0479   -4.1691 C   0  0  0  0  0  0  0  0  0  0  0  0
    6.1471   -0.2631   -4.0102 C   0  0  0  0  0  0  0  0  0  0  0  0
    4.7941   -0.4547   -3.6964 C   0  0  0  0  0  0  0  0  0  0  0  0
    3.8998    0.6022   -3.5094 C   0  0  0  0  0  0  0  0  0  0  0  0
    4.3993    1.9136   -3.6550 C   0  0  0  0  0  0  0  0  0  0  0  0
    6.0922    3.1426   -4.1196 H   0  0  0  0  0  0  0  0  0  0  0  0
    7.6376    1.2343   -4.4372 H   0  0  0  0  0  0  0  0  0  0  0  0
    4.4188   -1.4717   -3.6037 H   0  0  0  0  0  0  0  0  0  0  0  0
    0.7469    3.4833   -2.1726 H   0  0  0  0  0  0  0  0  0  0  0  0
    3.4918    3.4362   -3.2873 S   0  0  0  0  0  0  0  0  0  0  0  0
    2.0761    3.3624   -4.1112 O   0  0  0  0  0  0  0  0  0  0  0  0
    4.1914    4.5398   -3.9281 O   0  0  0  0  0  0  0  0  0  0  0  0
    3.2176    3.4715   -1.8519 O   0  0  0  0  0  0  0  0  0  0  0  0
    7.0759   -1.4422   -4.1602 C   0  0  0  0  0  0  0  0  0  0  0  0
    7.9402   -1.1943   -4.7818 H   0  0  0  0  0  0  0  0  0  0  0  0
    7.4552   -1.7634   -3.1828 H   0  0  0  0  0  0  0  0  0  0  0  0
    6.5668   -2.3006   -4.6081 H   0  0  0  0  0  0  0  0  0  0  0  0
  1  6  2  0  0  0  0
  1  7  1  0  0  0  0
  2  8  1  6  0  0  0
  2  1  1  0  0  0  0
  3 14  1  6  0  0  0
  3  4  1  0  0  0  0
  3  2  1  0  0  0  0
  4  9  1  6  0  0  0
  4  5  1  0  0  0  0
  5 10  1  0  0  0  0
  5 25  1  0  0  0  0
  5  6  1  0  0  0  0
  6 11  1  0  0  0  0
 11 12  2  0  0  0  0
 11 13  2  0  0  0  0
 15 14  1  0  0  0  0
 16 21  2  0  0  0  0
 17 18  2  0  0  0  0
 17 16  1  0  0  0  0
 18 19  1  0  0  0  0
 19 24  1  0  0  0  0
 19 20  2  0  0  0  0
 20  2  1  0  0  0  0
 21 20  1  0  0  0  0
 21 26  1  0  0  0  0
 22 16  1  0  0  0  0
 23 17  1  0  0  0  0
 26 29  2  0  0  0  0
 27  4  1  0  0  0  0
 27 26  1  0  0  0  0
 28 26  2  0  0  0  0
 30 18  1  0  0  0  0
 30 32  1  0  0  0  0
 31 30  1  0  0  0  0
 33 30  1  0  0  0  0
M  RAD  3   3   2  14   2  15   3
M  END
