Coordinates from ORCA-job p-NO2-Ph-N2-H-OTs-B3LYPG-6-31G_dp-scan-d09-49-n400
 OpenBabel08281820503D

 33 35  0  0  1  0  0  0  0  0999 V2000
    2.0428    0.4332   -1.9138 C   0  0  0  0  0  0  0  0  0  0  0  0
    2.3901    0.3635   -3.3912 C   0  0  1  0  0  0  0  0  0  0  0  0
    1.4432    1.2480   -4.1577 C   0  0  1  0  0  0  0  0  0  0  0  0
    1.0868    2.5311   -3.5054 C   0  0  1  0  0  0  0  0  0  0  0  0
    0.4077    2.3472   -2.1670 C   0  0  0  0  0  0  0  0  0  0  0  0
    1.1372    1.2762   -1.4058 C   0  0  0  0  0  0  0  0  0  0  0  0
    2.5412   -0.2593   -1.2440 H   0  0  0  0  0  0  0  0  0  0  0  0
    2.2407   -0.6820   -3.6912 H   0  0  0  0  0  0  0  0  0  0  0  0
    0.5448    3.2061   -4.1664 H   0  0  0  0  0  0  0  0  0  0  0  0
   -0.6641    2.1498   -2.2527 H   0  0  0  0  0  0  0  0  0  0  0  0
    0.8312    1.1860    0.0334 N   0  0  0  0  0  0  0  0  0  0  0  0
   -0.0421    1.9478    0.4490 O   0  0  0  0  0  0  0  0  0  0  0  0
    1.4376    0.3662    0.7210 O   0  0  0  0  0  0  0  0  0  0  0  0
    1.2004    1.0344   -5.4156 N   0  0  0  0  0  0  0  0  0  0  0  0
    0.9485    0.8093   -6.5078 N   0  0  0  0  0  0  0  0  0  0  0  0
    5.7779    2.0921   -4.2349 C   0  0  0  0  0  0  0  0  0  0  0  0
    6.6350    0.9989   -4.1715 C   0  0  0  0  0  0  0  0  0  0  0  0
    6.1455   -0.2717   -3.8490 C   0  0  0  0  0  0  0  0  0  0  0  0
    4.7733   -0.4041   -3.6071 C   0  0  0  0  0  0  0  0  0  0  0  0
    3.8792    0.6713   -3.6667 C   0  0  0  0  0  0  0  0  0  0  0  0
    4.4098    1.9392   -3.9888 C   0  0  0  0  0  0  0  0  0  0  0  0
    6.1664    3.0791   -4.4597 H   0  0  0  0  0  0  0  0  0  0  0  0
    7.6933    1.1375   -4.3730 H   0  0  0  0  0  0  0  0  0  0  0  0
    4.3785   -1.3892   -3.3669 H   0  0  0  0  0  0  0  0  0  0  0  0
    0.5746    3.3346   -1.7414 H   0  0  0  0  0  0  0  0  0  0  0  0
    3.4550    3.4698   -4.1213 S   0  0  0  0  0  0  0  0  0  0  0  0
    2.7013    3.5861   -5.3641 O   0  0  0  0  0  0  0  0  0  0  0  0
    4.3134    4.5498   -3.6590 O   0  0  0  0  0  0  0  0  0  0  0  0
    2.3137    3.2306   -3.0072 O   0  0  0  0  0  0  0  0  0  0  0  0
    7.0695   -1.4598   -3.7455 C   0  0  0  0  0  0  0  0  0  0  0  0
    7.8941   -1.3861   -4.4604 H   0  0  0  0  0  0  0  0  0  0  0  0
    7.5119   -1.5223   -2.7439 H   0  0  0  0  0  0  0  0  0  0  0  0
    6.5400   -2.3986   -3.9285 H   0  0  0  0  0  0  0  0  0  0  0  0
  1  6  2  0  0  0  0
  1  7  1  0  0  0  0
  2  8  1  6  0  0  0
  2  1  1  0  0  0  0
  3 14  1  6  0  0  0
  3  4  1  0  0  0  0
  3  2  1  0  0  0  0
  4  9  1  6  0  0  0
  4 29  1  0  0  0  0
  4  5  1  0  0  0  0
  5 25  1  0  0  0  0
  5  6  1  0  0  0  0
  6 11  1  0  0  0  0
 10  5  1  0  0  0  0
 11 12  2  0  0  0  0
 11 13  2  0  0  0  0
 15 14  1  0  0  0  0
 16 17  2  0  0  0  0
 16 21  1  0  0  0  0
 17 18  1  0  0  0  0
 18 30  1  0  0  0  0
 18 19  2  0  0  0  0
 19 24  1  0  0  0  0
 20 19  1  0  0  0  0
 20  2  1  0  0  0  0
 21 20  2  0  0  0  0
 22 16  1  0  0  0  0
 23 17  1  0  0  0  0
 26 21  1  0  0  0  0
 26 28  2  0  0  0  0
 26 29  1  0  0  0  0
 27 26  2  0  0  0  0
 30 32  1  0  0  0  0
 31 30  1  0  0  0  0
 33 30  1  0  0  0  0
M  RAD  3   3   2  14   2  15   3
M  END
