Coordinates from ORCA-job p-NO2-Ph-N2-H-OTs-B3LYPG-6-31G_dp-scan-d09-49-n400
 OpenBabel08281820503D

 33 35  0  0  1  0  0  0  0  0999 V2000
    2.0644    0.6142   -1.8402 C   0  0  0  0  0  0  0  0  0  0  0  0
    2.4294    0.3393   -3.2787 C   0  0  1  0  0  0  0  0  0  0  0  0
    1.4624    1.0540   -4.2040 C   0  0  1  0  0  0  0  0  0  0  0  0
    1.0509    2.4567   -3.8859 C   0  0  1  0  0  0  0  0  0  0  0  0
    0.3582    2.3804   -2.4485 C   0  0  0  0  0  0  0  0  0  0  0  0
    1.1431    1.5145   -1.5014 C   0  0  0  0  0  0  0  0  0  0  0  0
    2.5898    0.0688   -1.0649 H   0  0  0  0  0  0  0  0  0  0  0  0
    2.3178   -0.7412   -3.4343 H   0  0  0  0  0  0  0  0  0  0  0  0
    0.3051    2.8250   -4.5893 H   0  0  0  0  0  0  0  0  0  0  0  0
   -0.5505    1.8219   -2.7232 H   0  0  0  0  0  0  0  0  0  0  0  0
    0.8259    1.6680   -0.0682 N   0  0  0  0  0  0  0  0  0  0  0  0
   -0.1170    2.4112    0.2122 O   0  0  0  0  0  0  0  0  0  0  0  0
    1.4872    1.0379    0.7529 O   0  0  0  0  0  0  0  0  0  0  0  0
    1.2622    0.5838   -5.3984 N   0  0  0  0  0  0  0  0  0  0  0  0
    1.0497    0.1354   -6.4311 N   0  0  0  0  0  0  0  0  0  0  0  0
    5.8225    2.1131   -3.9391 C   0  0  0  0  0  0  0  0  0  0  0  0
    6.6534    1.0077   -4.1077 C   0  0  0  0  0  0  0  0  0  0  0  0
    6.1447   -0.2886   -3.9971 C   0  0  0  0  0  0  0  0  0  0  0  0
    4.7768   -0.4363   -3.7293 C   0  0  0  0  0  0  0  0  0  0  0  0
    3.9150    0.6492   -3.5480 C   0  0  0  0  0  0  0  0  0  0  0  0
    4.4668    1.9426   -3.6523 C   0  0  0  0  0  0  0  0  0  0  0  0
    6.2151    3.1183   -4.0398 H   0  0  0  0  0  0  0  0  0  0  0  0
    7.7043    1.1607   -4.3355 H   0  0  0  0  0  0  0  0  0  0  0  0
    4.3637   -1.4408   -3.6648 H   0  0  0  0  0  0  0  0  0  0  0  0
   -0.0752    3.2251   -1.8555 H   0  0  0  0  0  0  0  0  0  0  0  0
    3.5613    3.4826   -3.3736 S   0  0  0  0  0  0  0  0  0  0  0  0
    2.2335    3.3340   -4.3165 O   0  0  0  0  0  0  0  0  0  0  0  0
    4.3216    4.5584   -3.9929 O   0  0  0  0  0  0  0  0  0  0  0  0
    3.1537    3.5655   -1.9732 O   0  0  0  0  0  0  0  0  0  0  0  0
    7.0345   -1.4979   -4.1459 C   0  0  0  0  0  0  0  0  0  0  0  0
    7.9112   -1.2762   -4.7602 H   0  0  0  0  0  0  0  0  0  0  0  0
    7.3965   -1.8361   -3.1677 H   0  0  0  0  0  0  0  0  0  0  0  0
    6.5002   -2.3364   -4.6020 H   0  0  0  0  0  0  0  0  0  0  0  0
  1  6  2  0  0  0  0
  1  7  1  0  0  0  0
  2  8  1  6  0  0  0
  2  1  1  0  0  0  0
  3 14  1  6  0  0  0
  3  4  1  0  0  0  0
  3  2  1  0  0  0  0
  4  9  1  6  0  0  0
  4  5  1  0  0  0  0
  5 25  1  0  0  0  0
  5  6  1  0  0  0  0
  6 11  1  0  0  0  0
 10  5  1  0  0  0  0
 11 12  2  0  0  0  0
 11 13  2  0  0  0  0
 15 14  1  0  0  0  0
 16 21  2  0  0  0  0
 17 18  2  0  0  0  0
 17 16  1  0  0  0  0
 18 19  1  0  0  0  0
 19 24  1  0  0  0  0
 19 20  2  0  0  0  0
 20  2  1  0  0  0  0
 21 20  1  0  0  0  0
 21 26  1  0  0  0  0
 22 16  1  0  0  0  0
 23 17  1  0  0  0  0
 26 29  2  0  0  0  0
 27  4  1  0  0  0  0
 27 26  1  0  0  0  0
 28 26  2  0  0  0  0
 30 18  1  0  0  0  0
 30 32  1  0  0  0  0
 31 30  1  0  0  0  0
 33 30  1  0  0  0  0
M  RAD  3   3   2  14   2  15   3
M  END
