Coordinates from ORCA-job p-NO2-Ph-N2-H-OTs-B3LYPG-6-31G_dp-scan-d09-49-n400
 OpenBabel08281820503D

 33 35  0  0  1  0  0  0  0  0999 V2000
    2.0824    0.4140   -1.9818 C   0  0  0  0  0  0  0  0  0  0  0  0
    2.3672    0.3896   -3.4704 C   0  0  1  0  0  0  0  0  0  0  0  0
    1.4038    1.3100   -4.1754 C   0  0  1  0  0  0  0  0  0  0  0  0
    1.0598    2.5910   -3.4970 C   0  0  1  0  0  0  0  0  0  0  0  0
    0.4411    2.3348   -2.1238 C   0  0  0  0  0  0  0  0  0  0  0  0
    1.2146    1.2576   -1.4177 C   0  0  0  0  0  0  0  0  0  0  0  0
    2.6095   -0.2936   -1.3513 H   0  0  0  0  0  0  0  0  0  0  0  0
    2.1949   -0.6411   -3.8073 H   0  0  0  0  0  0  0  0  0  0  0  0
    0.4244    3.2237   -4.1192 H   0  0  0  0  0  0  0  0  0  0  0  0
   -0.6135    2.0575   -2.2306 H   0  0  0  0  0  0  0  0  0  0  0  0
    0.9789    1.1436    0.0343 N   0  0  0  0  0  0  0  0  0  0  0  0
    0.1191    1.8889    0.5050 O   0  0  0  0  0  0  0  0  0  0  0  0
    1.6260    0.3199    0.6783 O   0  0  0  0  0  0  0  0  0  0  0  0
    1.0715    1.0950   -5.4124 N   0  0  0  0  0  0  0  0  0  0  0  0
    0.7487    0.8747   -6.4866 N   0  0  0  0  0  0  0  0  0  0  0  0
    5.7906    2.1036   -4.1561 C   0  0  0  0  0  0  0  0  0  0  0  0
    6.6396    1.0064   -4.0571 C   0  0  0  0  0  0  0  0  0  0  0  0
    6.1287   -0.2694   -3.7945 C   0  0  0  0  0  0  0  0  0  0  0  0
    4.7444   -0.4011   -3.6356 C   0  0  0  0  0  0  0  0  0  0  0  0
    3.8606    0.6804   -3.7272 C   0  0  0  0  0  0  0  0  0  0  0  0
    4.4097    1.9493   -3.9962 C   0  0  0  0  0  0  0  0  0  0  0  0
    6.1916    3.0919   -4.3497 H   0  0  0  0  0  0  0  0  0  0  0  0
    7.7089    1.1456   -4.1889 H   0  0  0  0  0  0  0  0  0  0  0  0
    4.3330   -1.3876   -3.4313 H   0  0  0  0  0  0  0  0  0  0  0  0
    0.4790    3.2642   -1.5531 H   0  0  0  0  0  0  0  0  0  0  0  0
    3.4636    3.4642   -4.2669 S   0  0  0  0  0  0  0  0  0  0  0  0
    2.8404    3.4555   -5.5885 O   0  0  0  0  0  0  0  0  0  0  0  0
    4.2946    4.5817   -3.8449 O   0  0  0  0  0  0  0  0  0  0  0  0
    2.2790    3.3552   -3.1481 O   0  0  0  0  0  0  0  0  0  0  0  0
    7.0408   -1.4638   -3.6598 C   0  0  0  0  0  0  0  0  0  0  0  0
    7.9390   -1.3502   -4.2724 H   0  0  0  0  0  0  0  0  0  0  0  0
    7.3677   -1.5884   -2.6206 H   0  0  0  0  0  0  0  0  0  0  0  0
    6.5385   -2.3886   -3.9572 H   0  0  0  0  0  0  0  0  0  0  0  0
  1  6  2  0  0  0  0
  1  7  1  0  0  0  0
  2  8  1  6  0  0  0
  2  1  1  0  0  0  0
  3 14  1  6  0  0  0
  3  4  1  0  0  0  0
  3  2  1  0  0  0  0
  4  9  1  6  0  0  0
  4 29  1  0  0  0  0
  4  5  1  0  0  0  0
  5 25  1  0  0  0  0
  5  6  1  0  0  0  0
  6 11  1  0  0  0  0
 10  5  1  0  0  0  0
 11 12  2  0  0  0  0
 11 13  2  0  0  0  0
 15 14  1  0  0  0  0
 16 17  2  0  0  0  0
 16 21  1  0  0  0  0
 17 18  1  0  0  0  0
 18 30  1  0  0  0  0
 18 19  2  0  0  0  0
 19 24  1  0  0  0  0
 20 19  1  0  0  0  0
 20  2  1  0  0  0  0
 21 20  2  0  0  0  0
 22 16  1  0  0  0  0
 23 17  1  0  0  0  0
 26 21  1  0  0  0  0
 26 28  2  0  0  0  0
 26 29  1  0  0  0  0
 27 26  2  0  0  0  0
 30 32  1  0  0  0  0
 31 30  1  0  0  0  0
 33 30  1  0  0  0  0
M  RAD  3   3   2  14   2  15   3
M  END
