Coordinates from ORCA-job p-NO2-Ph-N2-H-OTs-B3LYPG-6-31G_dp-scan-d09-49-n400
 OpenBabel08281820503D

 33 34  0  0  1  0  0  0  0  0999 V2000
    2.0875    0.4760   -1.9386 C   0  0  0  0  0  0  0  0  0  0  0  0
    2.3797    0.4061   -3.4193 C   0  0  1  0  0  0  0  0  0  0  0  0
    1.3507    1.2433   -4.1578 C   0  0  0  0  0  0  0  0  0  0  0  0
    0.5006    2.1376   -3.6003 C   0  0  0  0  0  0  0  0  0  0  0  0
    0.3141    2.2524   -2.1336 C   0  0  0  0  0  0  0  0  0  0  0  0
    1.1697    1.2738   -1.3949 C   0  0  0  0  0  0  0  0  0  0  0  0
    2.6762   -0.1680   -1.2950 H   0  0  0  0  0  0  0  0  0  0  0  0
    2.2386   -0.6420   -3.7195 H   0  0  0  0  0  0  0  0  0  0  0  0
   -0.0769    2.7959   -4.2409 H   0  0  0  0  0  0  0  0  0  0  0  0
   -0.7440    2.1600   -1.8606 H   0  0  0  0  0  0  0  0  0  0  0  0
    0.9805    1.2367    0.0637 N   0  0  0  0  0  0  0  0  0  0  0  0
    0.1171    1.9894    0.5164 O   0  0  0  0  0  0  0  0  0  0  0  0
    1.6685    0.4674    0.7303 O   0  0  0  0  0  0  0  0  0  0  0  0
    1.4222    1.2146   -5.5242 N   0  0  0  0  0  0  0  0  0  0  0  0
    1.4557    1.0454   -6.6294 N   0  0  0  0  0  0  0  0  0  0  0  0
    5.8115    2.1119   -4.0595 C   0  0  0  0  0  0  0  0  0  0  0  0
    6.6383    0.9927   -4.0183 C   0  0  0  0  0  0  0  0  0  0  0  0
    6.1029   -0.2856   -3.8304 C   0  0  0  0  0  0  0  0  0  0  0  0
    4.7162   -0.3915   -3.6833 C   0  0  0  0  0  0  0  0  0  0  0  0
    3.8642    0.7223   -3.7056 C   0  0  0  0  0  0  0  0  0  0  0  0
    4.4279    2.0000   -3.9031 C   0  0  0  0  0  0  0  0  0  0  0  0
    6.2212    3.1034   -4.2177 H   0  0  0  0  0  0  0  0  0  0  0  0
    7.7112    1.1145   -4.1444 H   0  0  0  0  0  0  0  0  0  0  0  0
    4.2827   -1.3799   -3.5378 H   0  0  0  0  0  0  0  0  0  0  0  0
    0.6338    3.2772   -1.9095 H   0  0  0  0  0  0  0  0  0  0  0  0
    3.4690    3.5403   -4.0908 S   0  0  0  0  0  0  0  0  0  0  0  0
    2.6914    3.3161   -5.3486 O   0  0  0  0  0  0  0  0  0  0  0  0
    4.4515    4.6294   -4.1452 O   0  0  0  0  0  0  0  0  0  0  0  0
    2.5539    3.5615   -2.9067 O   0  0  0  0  0  0  0  0  0  0  0  0
    6.9885   -1.5066   -3.7670 C   0  0  0  0  0  0  0  0  0  0  0  0
    7.8577   -1.4015   -4.4226 H   0  0  0  0  0  0  0  0  0  0  0  0
    7.3667   -1.6659   -2.7500 H   0  0  0  0  0  0  0  0  0  0  0  0
    6.4493   -2.4121   -4.0601 H   0  0  0  0  0  0  0  0  0  0  0  0
  1  6  2  0  0  0  0
  1  7  1  0  0  0  0
  2  8  1  6  0  0  0
  2  1  1  0  0  0  0
  3  4  2  0  0  0  0
  3  2  1  0  0  0  0
  4  5  1  0  0  0  0
  5 25  1  0  0  0  0
  5 10  1  0  0  0  0
  5  6  1  0  0  0  0
  6 11  1  0  0  0  0
  9  4  1  0  0  0  0
 11 12  2  0  0  0  0
 11 13  2  0  0  0  0
 14  3  1  0  0  0  0
 15 14  1  0  0  0  0
 16 17  2  0  0  0  0
 16 21  1  0  0  0  0
 17 18  1  0  0  0  0
 18 30  1  0  0  0  0
 18 19  2  0  0  0  0
 19 24  1  0  0  0  0
 20 19  1  0  0  0  0
 20  2  1  0  0  0  0
 21 20  2  0  0  0  0
 22 16  1  0  0  0  0
 23 17  1  0  0  0  0
 26 21  1  0  0  0  0
 26 29  1  0  0  0  0
 27 26  2  0  0  0  0
 28 26  2  0  0  0  0
 30 32  1  0  0  0  0
 31 30  1  0  0  0  0
 33 30  1  0  0  0  0
M  RAD  3  14   2  15   3  29   2
M  END
