Coordinates from ORCA-job p-NO2-Ph-N2-H-OTs-B3LYPG-6-31G_dp-scan-d09-49-n400
 OpenBabel08281820503D

 33 35  0  0  1  0  0  0  0  0999 V2000
    2.0151    0.5466   -1.8435 C   0  0  0  0  0  0  0  0  0  0  0  0
    2.4237    0.2775   -3.2724 C   0  0  1  0  0  0  0  0  0  0  0  0
    1.4761    0.9917   -4.2133 C   0  0  1  0  0  0  0  0  0  0  0  0
    1.0426    2.3816   -3.8927 C   0  0  1  0  0  0  0  0  0  0  0  0
    0.4585    2.4447   -2.4632 C   0  0  0  0  0  0  0  0  0  0  0  0
    1.1364    1.4937   -1.5198 C   0  0  0  0  0  0  0  0  0  0  0  0
    2.4676   -0.0480   -1.0582 H   0  0  0  0  0  0  0  0  0  0  0  0
    2.3287   -0.8032   -3.4340 H   0  0  0  0  0  0  0  0  0  0  0  0
    0.2832    2.7225   -4.5977 H   0  0  0  0  0  0  0  0  0  0  0  0
   -0.6012    2.1717   -2.5455 H   0  0  0  0  0  0  0  0  0  0  0  0
    0.7738    1.6469   -0.0990 N   0  0  0  0  0  0  0  0  0  0  0  0
   -0.0925    2.4851    0.1544 O   0  0  0  0  0  0  0  0  0  0  0  0
    1.3248    0.9303    0.7337 O   0  0  0  0  0  0  0  0  0  0  0  0
    1.2879    0.5196   -5.4096 N   0  0  0  0  0  0  0  0  0  0  0  0
    1.0880    0.0701   -6.4437 N   0  0  0  0  0  0  0  0  0  0  0  0
    5.7689    2.1230   -3.9602 C   0  0  0  0  0  0  0  0  0  0  0  0
    6.6232    1.0365   -4.1346 C   0  0  0  0  0  0  0  0  0  0  0  0
    6.1489   -0.2707   -4.0031 C   0  0  0  0  0  0  0  0  0  0  0  0
    4.7889   -0.4492   -3.7142 C   0  0  0  0  0  0  0  0  0  0  0  0
    3.9038    0.6162   -3.5284 C   0  0  0  0  0  0  0  0  0  0  0  0
    4.4221    1.9226   -3.6497 C   0  0  0  0  0  0  0  0  0  0  0  0
    6.1371    3.1362   -4.0714 H   0  0  0  0  0  0  0  0  0  0  0  0
    7.6660    1.2133   -4.3813 H   0  0  0  0  0  0  0  0  0  0  0  0
    4.4005   -1.4627   -3.6385 H   0  0  0  0  0  0  0  0  0  0  0  0
    0.4695    3.4514   -2.0352 H   0  0  0  0  0  0  0  0  0  0  0  0
    3.5099    3.4505   -3.3205 S   0  0  0  0  0  0  0  0  0  0  0  0
    2.1336    3.3419   -4.2025 O   0  0  0  0  0  0  0  0  0  0  0  0
    4.2325    4.5442   -3.9523 O   0  0  0  0  0  0  0  0  0  0  0  0
    3.1736    3.5071   -1.8996 O   0  0  0  0  0  0  0  0  0  0  0  0
    7.0655   -1.4594   -4.1538 C   0  0  0  0  0  0  0  0  0  0  0  0
    7.9354   -1.2182   -4.7703 H   0  0  0  0  0  0  0  0  0  0  0  0
    7.4370   -1.7888   -3.1762 H   0  0  0  0  0  0  0  0  0  0  0  0
    6.5491   -2.3101   -4.6080 H   0  0  0  0  0  0  0  0  0  0  0  0
  1  6  2  0  0  0  0
  1  7  1  0  0  0  0
  2  8  1  6  0  0  0
  2  1  1  0  0  0  0
  3 14  1  6  0  0  0
  3  4  1  0  0  0  0
  3  2  1  0  0  0  0
  4  9  1  6  0  0  0
  4  5  1  0  0  0  0
  5 25  1  0  0  0  0
  5  6  1  0  0  0  0
  6 11  1  0  0  0  0
 10  5  1  0  0  0  0
 11 12  2  0  0  0  0
 11 13  2  0  0  0  0
 15 14  1  0  0  0  0
 16 21  2  0  0  0  0
 17 18  2  0  0  0  0
 17 16  1  0  0  0  0
 18 19  1  0  0  0  0
 19 24  1  0  0  0  0
 19 20  2  0  0  0  0
 20  2  1  0  0  0  0
 21 20  1  0  0  0  0
 21 26  1  0  0  0  0
 22 16  1  0  0  0  0
 23 17  1  0  0  0  0
 26 29  2  0  0  0  0
 27  4  1  0  0  0  0
 27 26  1  0  0  0  0
 28 26  2  0  0  0  0
 30 18  1  0  0  0  0
 30 32  1  0  0  0  0
 31 30  1  0  0  0  0
 33 30  1  0  0  0  0
M  RAD  3   3   2  14   2  15   3
M  END
