Coordinates from ORCA-job p-NO2-Ph-N2-H-OTs-B3LYPG-6-31G_dp-scan-d09-49-n400
 OpenBabel08281820503D

 33 35  0  0  1  0  0  0  0  0999 V2000
    2.0365    0.5718   -1.8441 C   0  0  0  0  0  0  0  0  0  0  0  0
    2.4255    0.2992   -3.2772 C   0  0  1  0  0  0  0  0  0  0  0  0
    1.4686    1.0133   -4.2104 C   0  0  1  0  0  0  0  0  0  0  0  0
    1.0488    2.4116   -3.8922 C   0  0  1  0  0  0  0  0  0  0  0  0
    0.4221    2.4214   -2.4617 C   0  0  0  0  0  0  0  0  0  0  0  0
    1.1451    1.5050   -1.5150 C   0  0  0  0  0  0  0  0  0  0  0  0
    2.5171   -0.0047   -1.0621 H   0  0  0  0  0  0  0  0  0  0  0  0
    2.3245   -0.7814   -3.4363 H   0  0  0  0  0  0  0  0  0  0  0  0
    0.2935    2.7621   -4.5962 H   0  0  0  0  0  0  0  0  0  0  0  0
   -0.5892    2.0205   -2.6198 H   0  0  0  0  0  0  0  0  0  0  0  0
    0.8015    1.6609   -0.0893 N   0  0  0  0  0  0  0  0  0  0  0  0
   -0.0929    2.4668    0.1732 O   0  0  0  0  0  0  0  0  0  0  0  0
    1.3959    0.9769    0.7406 O   0  0  0  0  0  0  0  0  0  0  0  0
    1.2707    0.5401   -5.4043 N   0  0  0  0  0  0  0  0  0  0  0  0
    1.0612    0.0898   -6.4364 N   0  0  0  0  0  0  0  0  0  0  0  0
    5.7907    2.1190   -3.9445 C   0  0  0  0  0  0  0  0  0  0  0  0
    6.6363    1.0257   -4.1184 C   0  0  0  0  0  0  0  0  0  0  0  0
    6.1481   -0.2778   -4.0011 C   0  0  0  0  0  0  0  0  0  0  0  0
    4.7843   -0.4451   -3.7240 C   0  0  0  0  0  0  0  0  0  0  0  0
    3.9078    0.6276   -3.5382 C   0  0  0  0  0  0  0  0  0  0  0  0
    4.4396    1.9292   -3.6472 C   0  0  0  0  0  0  0  0  0  0  0  0
    6.1687    3.1295   -4.0476 H   0  0  0  0  0  0  0  0  0  0  0  0
    7.6830    1.1941   -4.3546 H   0  0  0  0  0  0  0  0  0  0  0  0
    4.3861   -1.4555   -3.6567 H   0  0  0  0  0  0  0  0  0  0  0  0
    0.2434    3.3844   -1.9587 H   0  0  0  0  0  0  0  0  0  0  0  0
    3.5283    3.4608   -3.3376 S   0  0  0  0  0  0  0  0  0  0  0  0
    2.1735    3.3343   -4.2487 O   0  0  0  0  0  0  0  0  0  0  0  0
    4.2656    4.5484   -3.9632 O   0  0  0  0  0  0  0  0  0  0  0  0
    3.1587    3.5278   -1.9258 O   0  0  0  0  0  0  0  0  0  0  0  0
    7.0545   -1.4740   -4.1531 C   0  0  0  0  0  0  0  0  0  0  0  0
    7.9277   -1.2389   -4.7673 H   0  0  0  0  0  0  0  0  0  0  0  0
    7.4216   -1.8091   -3.1757 H   0  0  0  0  0  0  0  0  0  0  0  0
    6.5317   -2.3191   -4.6104 H   0  0  0  0  0  0  0  0  0  0  0  0
  1  6  2  0  0  0  0
  1  7  1  0  0  0  0
  2  8  1  6  0  0  0
  2  1  1  0  0  0  0
  3 14  1  6  0  0  0
  3  4  1  0  0  0  0
  3  2  1  0  0  0  0
  4  9  1  6  0  0  0
  4  5  1  0  0  0  0
  5 25  1  0  0  0  0
  5  6  1  0  0  0  0
  6 11  1  0  0  0  0
 10  5  1  0  0  0  0
 11 12  2  0  0  0  0
 11 13  2  0  0  0  0
 15 14  1  0  0  0  0
 16 21  2  0  0  0  0
 17 18  2  0  0  0  0
 17 16  1  0  0  0  0
 18 19  1  0  0  0  0
 19 24  1  0  0  0  0
 19 20  2  0  0  0  0
 20  2  1  0  0  0  0
 21 20  1  0  0  0  0
 21 26  1  0  0  0  0
 22 16  1  0  0  0  0
 23 17  1  0  0  0  0
 26 29  2  0  0  0  0
 27  4  1  0  0  0  0
 27 26  1  0  0  0  0
 28 26  2  0  0  0  0
 30 18  1  0  0  0  0
 30 32  1  0  0  0  0
 31 30  1  0  0  0  0
 33 30  1  0  0  0  0
M  RAD  3   3   2  14   2  15   3
M  END
