Coordinates from ORCA-job p-NO2-Ph-N2-H-OTs-B3LYPG-6-31G_dp-scan-d09-49-n400
 OpenBabel08281820503D

 33 35  0  0  1  0  0  0  0  0999 V2000
    2.0847    0.6560   -1.8310 C   0  0  0  0  0  0  0  0  0  0  0  0
    2.4351    0.3806   -3.2726 C   0  0  1  0  0  0  0  0  0  0  0  0
    1.4624    1.0953   -4.1950 C   0  0  1  0  0  0  0  0  0  0  0  0
    1.0378    2.4875   -3.8742 C   0  0  1  0  0  0  0  0  0  0  0  0
    0.2877    2.3360   -2.4192 C   0  0  0  0  0  0  0  0  0  0  0  0
    1.1256    1.5122   -1.4813 C   0  0  0  0  0  0  0  0  0  0  0  0
    2.6493    0.1415   -1.0622 H   0  0  0  0  0  0  0  0  0  0  0  0
    2.3136   -0.6999   -3.4233 H   0  0  0  0  0  0  0  0  0  0  0  0
    0.3074    2.8776   -4.5795 H   0  0  0  0  0  0  0  0  0  0  0  0
   -0.5252    1.6880   -2.7831 H   0  0  0  0  0  0  0  0  0  0  0  0
    0.8249    1.6529   -0.0419 N   0  0  0  0  0  0  0  0  0  0  0  0
   -0.1652    2.3262    0.2546 O   0  0  0  0  0  0  0  0  0  0  0  0
    1.5452    1.0781    0.7691 O   0  0  0  0  0  0  0  0  0  0  0  0
    1.2855    0.6374   -5.3991 N   0  0  0  0  0  0  0  0  0  0  0  0
    1.0930    0.1975   -6.4389 N   0  0  0  0  0  0  0  0  0  0  0  0
    5.8482    2.1071   -3.9592 C   0  0  0  0  0  0  0  0  0  0  0  0
    6.6652    0.9896   -4.1161 C   0  0  0  0  0  0  0  0  0  0  0  0
    6.1400   -0.2990   -3.9935 C   0  0  0  0  0  0  0  0  0  0  0  0
    4.7704   -0.4263   -3.7238 C   0  0  0  0  0  0  0  0  0  0  0  0
    3.9228    0.6724   -3.5535 C   0  0  0  0  0  0  0  0  0  0  0  0
    4.4905    1.9574   -3.6718 C   0  0  0  0  0  0  0  0  0  0  0  0
    6.2527    3.1066   -4.0699 H   0  0  0  0  0  0  0  0  0  0  0  0
    7.7181    1.1266   -4.3449 H   0  0  0  0  0  0  0  0  0  0  0  0
    4.3446   -1.4249   -3.6486 H   0  0  0  0  0  0  0  0  0  0  0  0
   -0.3130    3.0572   -1.7651 H   0  0  0  0  0  0  0  0  0  0  0  0
    3.5944    3.5076   -3.4219 S   0  0  0  0  0  0  0  0  0  0  0  0
    2.2908    3.3518   -4.3871 O   0  0  0  0  0  0  0  0  0  0  0  0
    4.3828    4.5719   -4.0284 O   0  0  0  0  0  0  0  0  0  0  0  0
    3.1599    3.5979   -2.0294 O   0  0  0  0  0  0  0  0  0  0  0  0
    7.0142   -1.5209   -4.1321 C   0  0  0  0  0  0  0  0  0  0  0  0
    7.8927   -1.3157   -4.7495 H   0  0  0  0  0  0  0  0  0  0  0  0
    7.3733   -1.8550   -3.1514 H   0  0  0  0  0  0  0  0  0  0  0  0
    6.4689   -2.3566   -4.5803 H   0  0  0  0  0  0  0  0  0  0  0  0
  1  6  2  0  0  0  0
  1  7  1  0  0  0  0
  2  8  1  6  0  0  0
  2  1  1  0  0  0  0
  3 14  1  6  0  0  0
  3  4  1  0  0  0  0
  3  2  1  0  0  0  0
  4  9  1  6  0  0  0
  4  5  1  0  0  0  0
  5 25  1  0  0  0  0
  5  6  1  0  0  0  0
  6 11  1  0  0  0  0
 10  5  1  0  0  0  0
 11 12  2  0  0  0  0
 11 13  2  0  0  0  0
 15 14  1  0  0  0  0
 16 21  2  0  0  0  0
 17 18  2  0  0  0  0
 17 16  1  0  0  0  0
 18 19  1  0  0  0  0
 19 24  1  0  0  0  0
 19 20  2  0  0  0  0
 20  2  1  0  0  0  0
 21 20  1  0  0  0  0
 21 26  1  0  0  0  0
 22 16  1  0  0  0  0
 23 17  1  0  0  0  0
 26 29  2  0  0  0  0
 27  4  1  0  0  0  0
 27 26  1  0  0  0  0
 28 26  2  0  0  0  0
 30 18  1  0  0  0  0
 30 32  1  0  0  0  0
 31 30  1  0  0  0  0
 33 30  1  0  0  0  0
M  RAD  3   3   2  14   2  15   3
M  END
