Coordinates from ORCA-job p-NO2-Ph-N2-H-OTs-B3LYPG-6-31G_dp-scan-d09-49-n400
 OpenBabel08281820503D

 33 35  0  0  1  0  0  0  0  0999 V2000
    2.0783    0.6418   -1.8352 C   0  0  0  0  0  0  0  0  0  0  0  0
    2.4331    0.3661   -3.2759 C   0  0  1  0  0  0  0  0  0  0  0  0
    1.4621    1.0809   -4.1986 C   0  0  1  0  0  0  0  0  0  0  0  0
    1.0450    2.4792   -3.8795 C   0  0  1  0  0  0  0  0  0  0  0  0
    0.3129    2.3529   -2.4310 C   0  0  0  0  0  0  0  0  0  0  0  0
    1.1330    1.5146   -1.4894 C   0  0  0  0  0  0  0  0  0  0  0  0
    2.6291    0.1160   -1.0641 H   0  0  0  0  0  0  0  0  0  0  0  0
    2.3153   -0.7144   -3.4282 H   0  0  0  0  0  0  0  0  0  0  0  0
    0.3079    2.8605   -4.5837 H   0  0  0  0  0  0  0  0  0  0  0  0
   -0.5320    1.7307   -2.7662 H   0  0  0  0  0  0  0  0  0  0  0  0
    0.8268    1.6597   -0.0520 N   0  0  0  0  0  0  0  0  0  0  0  0
   -0.1460    2.3594    0.2394 O   0  0  0  0  0  0  0  0  0  0  0  0
    1.5277    1.0656    0.7624 O   0  0  0  0  0  0  0  0  0  0  0  0
    1.2726    0.6168   -5.3977 N   0  0  0  0  0  0  0  0  0  0  0  0
    1.0690    0.1725   -6.4338 N   0  0  0  0  0  0  0  0  0  0  0  0
    5.8402    2.1093   -3.9497 C   0  0  0  0  0  0  0  0  0  0  0  0
    6.6620    0.9961   -4.1112 C   0  0  0  0  0  0  0  0  0  0  0  0
    6.1421   -0.2953   -3.9948 C   0  0  0  0  0  0  0  0  0  0  0  0
    4.7729   -0.4298   -3.7271 C   0  0  0  0  0  0  0  0  0  0  0  0
    3.9202    0.6642   -3.5526 C   0  0  0  0  0  0  0  0  0  0  0  0
    4.4828    1.9520   -3.6639 C   0  0  0  0  0  0  0  0  0  0  0  0
    6.2408    3.1108   -4.0556 H   0  0  0  0  0  0  0  0  0  0  0  0
    7.7145    1.1388   -4.3384 H   0  0  0  0  0  0  0  0  0  0  0  0
    4.3513   -1.4305   -3.6571 H   0  0  0  0  0  0  0  0  0  0  0  0
   -0.2380    3.1153   -1.7942 H   0  0  0  0  0  0  0  0  0  0  0  0
    3.5831    3.4980   -3.4034 S   0  0  0  0  0  0  0  0  0  0  0  0
    2.2707    3.3433   -4.3616 O   0  0  0  0  0  0  0  0  0  0  0  0
    4.3603    4.5668   -4.0152 O   0  0  0  0  0  0  0  0  0  0  0  0
    3.1570    3.5862   -2.0085 O   0  0  0  0  0  0  0  0  0  0  0  0
    7.0217   -1.5128   -4.1374 C   0  0  0  0  0  0  0  0  0  0  0  0
    7.9000   -1.3015   -4.7532 H   0  0  0  0  0  0  0  0  0  0  0  0
    7.3815   -1.8490   -3.1576 H   0  0  0  0  0  0  0  0  0  0  0  0
    6.4804   -2.3492   -4.5891 H   0  0  0  0  0  0  0  0  0  0  0  0
  1  6  2  0  0  0  0
  1  7  1  0  0  0  0
  2  8  1  6  0  0  0
  2  1  1  0  0  0  0
  3 14  1  6  0  0  0
  3  4  1  0  0  0  0
  3  2  1  0  0  0  0
  4  9  1  6  0  0  0
  4  5  1  0  0  0  0
  5 25  1  0  0  0  0
  5  6  1  0  0  0  0
  6 11  1  0  0  0  0
 10  5  1  0  0  0  0
 11 12  2  0  0  0  0
 11 13  2  0  0  0  0
 15 14  1  0  0  0  0
 16 21  2  0  0  0  0
 17 18  2  0  0  0  0
 17 16  1  0  0  0  0
 18 19  1  0  0  0  0
 19 24  1  0  0  0  0
 19 20  2  0  0  0  0
 20  2  1  0  0  0  0
 21 20  1  0  0  0  0
 21 26  1  0  0  0  0
 22 16  1  0  0  0  0
 23 17  1  0  0  0  0
 26 29  2  0  0  0  0
 27  4  1  0  0  0  0
 27 26  1  0  0  0  0
 28 26  2  0  0  0  0
 30 18  1  0  0  0  0
 30 32  1  0  0  0  0
 31 30  1  0  0  0  0
 33 30  1  0  0  0  0
M  RAD  3   3   2  14   2  15   3
M  END
