Coordinates from ORCA-job p-NO2-Ph-N2-H-OTs-B3LYPG-6-31G_dp-scan-d09-49-n400
 OpenBabel08281820503D

 33 34  0  0  1  0  0  0  0  0999 V2000
    1.9747    0.7405   -1.6841 C   0  0  0  0  0  0  0  0  0  0  0  0
    2.4797    0.2863   -3.0343 C   0  0  1  0  0  0  0  0  0  0  0  0
    1.4700    0.6815   -4.1272 C   0  0  0  0  0  0  0  0  0  0  0  0
    0.3800    1.5738   -3.9053 C   0  0  0  0  0  0  0  0  0  0  0  0
    0.1386    2.0753   -2.6533 C   0  0  0  0  0  0  0  0  0  0  0  0
    0.9003    1.5260   -1.5375 C   0  0  0  0  0  0  0  0  0  0  0  0
    2.5195    0.4137   -0.8068 H   0  0  0  0  0  0  0  0  0  0  0  0
    2.5055   -0.8115   -2.9839 H   0  0  0  0  0  0  0  0  0  0  0  0
   -0.2127    1.8975   -4.7552 H   0  0  0  0  0  0  0  0  0  0  0  0
   -0.6999    2.7264   -2.4472 H   0  0  0  0  0  0  0  0  0  0  0  0
    0.4914    1.9209   -0.1787 N   0  0  0  0  0  0  0  0  0  0  0  0
   -0.4279    2.7349   -0.0944 O   0  0  0  0  0  0  0  0  0  0  0  0
    1.0745    1.4102    0.7725 O   0  0  0  0  0  0  0  0  0  0  0  0
    1.6786    0.2227   -5.3405 N   0  0  0  0  0  0  0  0  0  0  0  0
    1.8962   -0.2103   -6.3728 N   0  0  0  0  0  0  0  0  0  0  0  0
    5.8131    2.1581   -3.8108 C   0  0  0  0  0  0  0  0  0  0  0  0
    6.5971    1.0787   -4.2102 C   0  0  0  0  0  0  0  0  0  0  0  0
    6.0804   -0.2174   -4.1945 C   0  0  0  0  0  0  0  0  0  0  0  0
    4.7528   -0.3798   -3.7811 C   0  0  0  0  0  0  0  0  0  0  0  0
    3.9327    0.6814   -3.3732 C   0  0  0  0  0  0  0  0  0  0  0  0
    4.4922    1.9814   -3.3899 C   0  0  0  0  0  0  0  0  0  0  0  0
    6.2171    3.1636   -3.8221 H   0  0  0  0  0  0  0  0  0  0  0  0
    7.6188    1.2531   -4.5353 H   0  0  0  0  0  0  0  0  0  0  0  0
    4.3328   -1.3838   -3.7780 H   0  0  0  0  0  0  0  0  0  0  0  0
    1.4112    3.1426   -3.2512 H   0  0  0  0  0  0  0  0  0  0  0  0
    3.6991    3.5169   -2.8190 S   0  0  0  0  0  0  0  0  0  0  0  0
    2.4105    3.6572   -3.7525 O   0  0  0  0  0  0  0  0  0  0  0  0
    4.5941    4.6109   -3.1804 O   0  0  0  0  0  0  0  0  0  0  0  0
    3.3025    3.3335   -1.4205 O   0  0  0  0  0  0  0  0  0  0  0  0
    6.9208   -1.4074   -4.5872 C   0  0  0  0  0  0  0  0  0  0  0  0
    7.6890   -1.1292   -5.3140 H   0  0  0  0  0  0  0  0  0  0  0  0
    7.4339   -1.8278   -3.7136 H   0  0  0  0  0  0  0  0  0  0  0  0
    6.3118   -2.2052   -5.0221 H   0  0  0  0  0  0  0  0  0  0  0  0
  1  6  2  0  0  0  0
  1  7  1  0  0  0  0
  2  8  1  1  0  0  0
  2  1  1  0  0  0  0
  3  4  2  0  0  0  0
  3  2  1  0  0  0  0
  4  5  1  0  0  0  0
  5 10  1  0  0  0  0
  5  6  1  0  0  0  0
  6 11  1  0  0  0  0
  9  4  1  0  0  0  0
 11 12  2  0  0  0  0
 11 13  2  0  0  0  0
 14  3  1  0  0  0  0
 15 14  1  0  0  0  0
 16 21  2  0  0  0  0
 17 18  2  0  0  0  0
 17 16  1  0  0  0  0
 18 19  1  0  0  0  0
 19 24  1  0  0  0  0
 19 20  2  0  0  0  0
 20  2  1  0  0  0  0
 21 20  1  0  0  0  0
 21 26  1  0  0  0  0
 22 16  1  0  0  0  0
 23 17  1  0  0  0  0
 26 29  2  0  0  0  0
 27 25  1  0  0  0  0
 27 26  1  0  0  0  0
 28 26  2  0  0  0  0
 30 18  1  0  0  0  0
 30 32  1  0  0  0  0
 31 30  1  0  0  0  0
 33 30  1  0  0  0  0
M  RAD  3   5   2  14   2  15   3
M  END
