Coordinates from ORCA-job 1g-Schema6-R11-K+-B3LYPG-6-31G_dp-scan-d49-09-n400
 OpenBabel08281819543D

 29 32  0  0  1  0  0  0  0  0999 V2000
    0.9426    2.3478    0.3615 C   0  0  0  0  0  0  0  0  0  0  0  0
    1.8407    1.3002    0.2482 C   0  0  0  0  0  0  0  0  0  0  0  0
    1.3982   -0.0751    0.3111 C   0  0  1  0  0  0  0  0  0  0  0  0
    0.0411   -0.3645    0.6925 C   0  0  0  0  0  0  0  0  0  0  0  0
   -0.8301    0.6878    0.8328 C   0  0  0  0  0  0  0  0  0  0  0  0
   -0.3882    2.0321    0.6445 C   0  0  0  0  0  0  0  0  0  0  0  0
    1.2530    3.3844    0.2847 H   0  0  0  0  0  0  0  0  0  0  0  0
   -1.1143    2.8294    0.7618 H   0  0  0  0  0  0  0  0  0  0  0  0
   -0.3034   -1.3890    0.7921 H   0  0  0  0  0  0  0  0  0  0  0  0
    2.0674   -0.8564   -0.8294 N   0  0  0  0  0  0  0  0  0  0  0  0
    2.5556   -0.9058    0.4488 N   0  0  0  0  0  0  0  0  0  0  0  0
    3.7043   -0.0831    0.7003 C   0  0  0  0  0  0  0  0  0  0  0  0
    4.9218   -0.4093    1.2152 C   0  0  0  0  0  0  0  0  0  0  0  0
    3.3559    1.2621    0.1950 C   0  0  2  0  0  0  0  0  0  0  0  0
    5.8668    0.6385    1.2953 C   0  0  0  0  0  0  0  0  0  0  0  0
    5.1612   -1.4182    1.5328 H   0  0  0  0  0  0  0  0  0  0  0  0
    4.2924    2.3280    0.5068 C   0  0  0  0  0  0  0  0  0  0  0  0
    3.4775    0.9884   -0.9126 H   0  0  0  0  0  0  0  0  0  0  0  0
    5.5492    1.9785    0.9711 C   0  0  0  0  0  0  0  0  0  0  0  0
    6.8814    0.4363    1.6255 H   0  0  0  0  0  0  0  0  0  0  0  0
    4.0311    3.3700    0.3555 H   0  0  0  0  0  0  0  0  0  0  0  0
   -2.2573    0.3623    1.1776 C   0  0  0  0  0  0  0  0  0  0  0  0
   -2.6538   -0.7666    1.3473 O   0  0  0  0  0  0  0  0  0  0  0  0
   -3.0156    1.4674    1.2766 O   0  0  0  0  0  0  0  0  0  0  0  0
   -3.9193    1.1870    1.5041 H   0  0  0  0  0  0  0  0  0  0  0  0
    6.6274    3.0031    1.2044 C   0  0  0  0  0  0  0  0  0  0  0  0
    7.7326    2.7162    1.5993 O   0  0  0  0  0  0  0  0  0  0  0  0
    6.2080    4.2469    0.9207 O   0  0  0  0  0  0  0  0  0  0  0  0
    6.9464    4.8570    1.0936 H   0  0  0  0  0  0  0  0  0  0  0  0
  1  6  1  0  0  0  0
  2  3  1  0  0  0  0
  2  1  2  0  0  0  0
  3 10  1  6  0  0  0
  3 11  1  0  0  0  0
  3  4  1  0  0  0  0
  4  9  1  0  0  0  0
  4  5  2  0  0  0  0
  5 22  1  0  0  0  0
  6  8  1  0  0  0  0
  6  5  1  0  0  0  0
  7  1  1  0  0  0  0
 10 11  1  0  0  0  0
 11 12  1  0  0  0  0
 12 13  2  0  0  0  0
 13 15  1  0  0  0  0
 13 16  1  0  0  0  0
 14 18  1  6  0  0  0
 14  2  1  0  0  0  0
 14 17  1  0  0  0  0
 14 12  1  0  0  0  0
 15 20  1  0  0  0  0
 17 19  2  0  0  0  0
 19 26  1  0  0  0  0
 19 15  1  0  0  0  0
 21 17  1  0  0  0  0
 22 24  1  0  0  0  0
 22 23  2  0  0  0  0
 24 25  1  0  0  0  0
 26 27  2  0  0  0  0
 28 29  1  0  0  0  0
 28 26  1  0  0  0  0
M  RAD  3   6   2  10   2  15   2
M  END
