Coordinates from ORCA-job 1g-Schema6-R11-K+-B3LYPG-6-31G_dp-scan-d49-09-n400
 OpenBabel08281819543D

 29 29  0  0  0  0  0  0  0  0999 V2000
   -0.7166    2.1856   -1.6069 C   0  0  0  0  0  0  0  0  0  0  0  0
    0.4452    1.6333   -1.1200 C   0  0  0  0  0  0  0  0  0  0  0  0
    0.7673    1.1492   -0.0082 C   0  0  0  0  0  0  0  0  0  0  0  0
   -0.1401    1.0965    1.0495 C   0  0  0  0  0  0  0  0  0  0  0  0
   -1.4047    1.6345    0.7087 C   0  0  0  0  0  0  0  0  0  0  0  0
   -1.6795    2.1592   -0.5733 C   0  0  0  0  0  0  0  0  0  0  0  0
   -0.9138    2.5851   -2.5931 H   0  0  0  0  0  0  0  0  0  0  0  0
   -2.6678    2.5587   -0.7754 H   0  0  0  0  0  0  0  0  0  0  0  0
    0.0327    0.7025    2.0440 H   0  0  0  0  0  0  0  0  0  0  0  0
    3.9553   -2.9143   -0.5243 N   0  0  0  0  0  0  0  0  0  0  0  0
    4.3871   -1.9702   -0.1166 N   0  0  0  0  0  0  0  0  0  0  0  0
    4.9185   -0.8039    0.3868 C   0  0  0  0  0  0  0  0  0  0  0  0
    6.2666   -0.8235    0.8081 C   0  0  0  0  0  0  0  0  0  0  0  0
    4.0832    0.3297    0.4487 C   0  0  0  0  0  0  0  0  0  0  0  0
    6.7835    0.3568    1.3120 C   0  0  0  0  0  0  0  0  0  0  0  0
    6.8617   -1.7272    0.7362 H   0  0  0  0  0  0  0  0  0  0  0  0
    4.6417    1.4923    0.9610 C   0  0  0  0  0  0  0  0  0  0  0  0
    3.0463    0.3063    0.1167 H   0  0  0  0  0  0  0  0  0  0  0  0
    5.9790    1.5077    1.3886 C   0  0  0  0  0  0  0  0  0  0  0  0
    7.8103    0.4159    1.6552 H   0  0  0  0  0  0  0  0  0  0  0  0
    4.0380    2.3899    1.0305 H   0  0  0  0  0  0  0  0  0  0  0  0
   -2.4426    1.6174    1.7860 C   0  0  0  0  0  0  0  0  0  0  0  0
   -2.2540    1.1782    2.9010 O   0  0  0  0  0  0  0  0  0  0  0  0
   -3.6206    2.1438    1.3892 O   0  0  0  0  0  0  0  0  0  0  0  0
   -4.2227    2.0869    2.1505 H   0  0  0  0  0  0  0  0  0  0  0  0
    6.6228    2.7501    1.9503 C   0  0  0  0  0  0  0  0  0  0  0  0
    7.7727    2.7735    2.3223 O   0  0  0  0  0  0  0  0  0  0  0  0
    5.7755    3.7877    1.9789 O   0  0  0  0  0  0  0  0  0  0  0  0
    6.2476    4.5536    2.3507 H   0  0  0  0  0  0  0  0  0  0  0  0
  1  2  2  0  0  0  0
  1  6  1  0  0  0  0
  2  3  1  0  0  0  0
  3  4  2  0  0  0  0
  4  9  1  0  0  0  0
  5  4  1  0  0  0  0
  5 22  1  0  0  0  0
  6  5  2  0  0  0  0
  7  1  1  0  0  0  0
  8  6  1  0  0  0  0
 10 11  1  0  0  0  0
 11 12  1  0  0  0  0
 12 14  2  0  0  0  0
 12 13  1  0  0  0  0
 13 15  2  0  0  0  0
 14 17  1  0  0  0  0
 15 19  1  0  0  0  0
 15 20  1  0  0  0  0
 16 13  1  0  0  0  0
 17 21  1  0  0  0  0
 17 19  2  0  0  0  0
 18 14  1  0  0  0  0
 19 26  1  0  0  0  0
 22 23  2  0  0  0  0
 24 22  1  0  0  0  0
 24 25  1  0  0  0  0
 26 28  1  0  0  0  0
 26 27  2  0  0  0  0
 28 29  1  0  0  0  0
M  RAD  4   2   2   3   2  10   3  11   2
M  END
