Coordinates from ORCA-job 1g-Schema6-R11-K+-B3LYPG-6-31G_dp-scan-d49-09-n400
 OpenBabel08281819543D

 29 30  0  0  0  0  0  0  0  0999 V2000
   -0.7690    1.5099   -1.8084 C   0  0  0  0  0  0  0  0  0  0  0  0
    0.2666    0.6499   -1.6778 C   0  0  0  0  0  0  0  0  0  0  0  0
    0.9438    0.0736   -0.7345 C   0  0  0  0  0  0  0  0  0  0  0  0
    0.3925    0.2855    0.5475 C   0  0  0  0  0  0  0  0  0  0  0  0
   -0.7357    1.1166    0.6308 C   0  0  0  0  0  0  0  0  0  0  0  0
   -1.3106    1.7050   -0.5109 C   0  0  0  0  0  0  0  0  0  0  0  0
   -1.1988    1.9297   -2.7094 H   0  0  0  0  0  0  0  0  0  0  0  0
   -2.2141    2.3008   -0.4207 H   0  0  0  0  0  0  0  0  0  0  0  0
    0.8279   -0.1401    1.4472 H   0  0  0  0  0  0  0  0  0  0  0  0
    2.1489   -1.1081   -0.9370 N   0  0  0  0  0  0  0  0  0  0  0  0
    3.2229   -0.9970   -0.4490 N   0  0  0  0  0  0  0  0  0  0  0  0
    4.0101   -0.0576    0.2269 C   0  0  0  0  0  0  0  0  0  0  0  0
    5.0345   -0.5771    1.0375 C   0  0  0  0  0  0  0  0  0  0  0  0
    3.8296    1.3272    0.0449 C   0  0  0  0  0  0  0  0  0  0  0  0
    5.8513    0.3079    1.7261 C   0  0  0  0  0  0  0  0  0  0  0  0
    5.1595   -1.6512    1.1219 H   0  0  0  0  0  0  0  0  0  0  0  0
    4.6750    2.1950    0.7210 C   0  0  0  0  0  0  0  0  0  0  0  0
    3.0682    1.7059   -0.6261 H   0  0  0  0  0  0  0  0  0  0  0  0
    5.6759    1.6897    1.5681 C   0  0  0  0  0  0  0  0  0  0  0  0
    6.6419   -0.0465    2.3781 H   0  0  0  0  0  0  0  0  0  0  0  0
    4.5711    3.2666    0.5950 H   0  0  0  0  0  0  0  0  0  0  0  0
   -1.2918    1.3500    2.0078 C   0  0  0  0  0  0  0  0  0  0  0  0
   -0.7840    0.8968    3.0082 O   0  0  0  0  0  0  0  0  0  0  0  0
   -2.3947    2.1158    1.9884 O   0  0  0  0  0  0  0  0  0  0  0  0
   -2.6982    2.2218    2.9069 H   0  0  0  0  0  0  0  0  0  0  0  0
    6.6084    2.5941    2.3231 C   0  0  0  0  0  0  0  0  0  0  0  0
    7.4746    2.1842    3.0615 O   0  0  0  0  0  0  0  0  0  0  0  0
    6.3630    3.8952    2.0856 O   0  0  0  0  0  0  0  0  0  0  0  0
    7.0037    4.4117    2.6045 H   0  0  0  0  0  0  0  0  0  0  0  0
  1  2  2  0  0  0  0
  1  6  1  0  0  0  0
  2  3  1  0  0  0  0
  3  4  2  0  0  0  0
  4  5  1  0  0  0  0
  4  9  1  0  0  0  0
  5 22  1  0  0  0  0
  6  8  1  0  0  0  0
  6  5  2  0  0  0  0
  7  1  1  0  0  0  0
 10  3  1  0  0  0  0
 10 11  2  0  0  0  0
 11 12  1  0  0  0  0
 12 13  1  0  0  0  0
 13 16  1  0  0  0  0
 13 15  2  0  0  0  0
 14 12  2  0  0  0  0
 14 17  1  0  0  0  0
 15 20  1  0  0  0  0
 17 19  2  0  0  0  0
 18 14  1  0  0  0  0
 19 15  1  0  0  0  0
 19 26  1  0  0  0  0
 21 17  1  0  0  0  0
 22 23  2  0  0  0  0
 24 22  1  0  0  0  0
 24 25  1  0  0  0  0
 26 27  2  0  0  0  0
 28 26  1  0  0  0  0
 28 29  1  0  0  0  0
M  RAD  1   2   2
M  END
