Coordinates from ORCA-job 1g-Schema6-R11-K+-B3LYPG-6-31G_dp-scan-d49-09-n400
 OpenBabel08281819543D

 29 31  0  0  1  0  0  0  0  0999 V2000
    1.2375    2.1297    0.5602 C   0  0  0  0  0  0  0  0  0  0  0  0
    1.9640    1.0068    0.2052 C   0  0  0  0  0  0  0  0  0  0  0  0
    1.3234   -0.2600    0.1573 C   0  0  0  0  0  0  0  0  0  0  0  0
   -0.0484   -0.3463    0.4590 C   0  0  0  0  0  0  0  0  0  0  0  0
   -0.7603    0.7786    0.8779 C   0  0  0  0  0  0  0  0  0  0  0  0
   -0.1147    2.0157    0.9287 C   0  0  0  0  0  0  0  0  0  0  0  0
    1.7127    3.1049    0.5749 H   0  0  0  0  0  0  0  0  0  0  0  0
   -0.6602    2.8942    1.2548 H   0  0  0  0  0  0  0  0  0  0  0  0
   -0.5554   -1.3030    0.3767 H   0  0  0  0  0  0  0  0  0  0  0  0
    1.9110   -1.3897   -0.3098 N   0  0  0  0  0  0  0  0  0  0  0  0
    3.1097   -1.2911   -0.0502 N   0  0  0  0  0  0  0  0  0  0  0  0
    3.8990   -0.2715    0.2546 C   0  0  0  0  0  0  0  0  0  0  0  0
    5.0013   -0.4082    1.1191 C   0  0  0  0  0  0  0  0  0  0  0  0
    3.4362    1.0493   -0.2609 C   0  0  2  0  0  0  0  0  0  0  0  0
    5.6962    0.7260    1.4738 C   0  0  0  0  0  0  0  0  0  0  0  0
    5.2615   -1.3870    1.5057 H   0  0  0  0  0  0  0  0  0  0  0  0
    4.2920    2.2008    0.1394 C   0  0  0  0  0  0  0  0  0  0  0  0
    3.3919    1.0596   -1.3662 H   0  0  0  0  0  0  0  0  0  0  0  0
    5.3527    2.0322    0.9717 C   0  0  0  0  0  0  0  0  0  0  0  0
    6.5453    0.6672    2.1489 H   0  0  0  0  0  0  0  0  0  0  0  0
    4.0967    3.1697   -0.3083 H   0  0  0  0  0  0  0  0  0  0  0  0
   -2.2066    0.5966    1.2326 C   0  0  0  0  0  0  0  0  0  0  0  0
   -2.7724   -0.4709    1.1736 O   0  0  0  0  0  0  0  0  0  0  0  0
   -2.7831    1.7480    1.6192 O   0  0  0  0  0  0  0  0  0  0  0  0
   -3.7117    1.5536    1.8346 H   0  0  0  0  0  0  0  0  0  0  0  0
    6.2397    3.1692    1.3998 C   0  0  0  0  0  0  0  0  0  0  0  0
    7.1710    3.0186    2.1555 O   0  0  0  0  0  0  0  0  0  0  0  0
    5.8655    4.3375    0.8563 O   0  0  0  0  0  0  0  0  0  0  0  0
    6.4777    5.0247    1.1729 H   0  0  0  0  0  0  0  0  0  0  0  0
  1  7  1  0  0  0  0
  1  6  2  0  0  0  0
  2  1  1  0  0  0  0
  3  2  2  0  0  0  0
  3  4  1  0  0  0  0
  4  5  2  0  0  0  0
  5  6  1  0  0  0  0
  5 22  1  0  0  0  0
  6  8  1  0  0  0  0
  9  4  1  0  0  0  0
 10 11  1  0  0  0  0
 10  3  1  0  0  0  0
 11 12  1  0  0  0  0
 12 13  2  0  0  0  0
 13 15  1  0  0  0  0
 13 16  1  0  0  0  0
 14 18  1  6  0  0  0
 14 17  1  0  0  0  0
 14  2  1  0  0  0  0
 14 12  1  0  0  0  0
 15 20  1  0  0  0  0
 17 19  2  0  0  0  0
 19 26  1  0  0  0  0
 19 15  1  0  0  0  0
 21 17  1  0  0  0  0
 22 24  1  0  0  0  0
 23 22  2  0  0  0  0
 24 25  1  0  0  0  0
 26 27  2  0  0  0  0
 28 29  1  0  0  0  0
 28 26  1  0  0  0  0
M  RAD  3  10   2  11   2  15   2
M  END
