Coordinates from ORCA-job 1g-Schema6-R11-K+-B3LYPG-6-31G_dp-scan-d49-09-n400
 OpenBabel08281819543D

 29 29  0  0  0  0  0  0  0  0999 V2000
   -0.7782    2.0916   -1.6571 C   0  0  0  0  0  0  0  0  0  0  0  0
    0.3980    1.5808   -1.1618 C   0  0  0  0  0  0  0  0  0  0  0  0
    0.7454    1.1322   -0.0423 C   0  0  0  0  0  0  0  0  0  0  0  0
   -0.1579    1.0845    1.0206 C   0  0  0  0  0  0  0  0  0  0  0  0
   -1.4379    1.5811    0.6757 C   0  0  0  0  0  0  0  0  0  0  0  0
   -1.7341    2.0664   -0.6168 C   0  0  0  0  0  0  0  0  0  0  0  0
   -0.9902    2.4614   -2.6518 H   0  0  0  0  0  0  0  0  0  0  0  0
   -2.7332    2.4359   -0.8226 H   0  0  0  0  0  0  0  0  0  0  0  0
    0.0306    0.7208    2.0239 H   0  0  0  0  0  0  0  0  0  0  0  0
    3.7257   -2.7374   -0.4971 N   0  0  0  0  0  0  0  0  0  0  0  0
    4.2260   -1.8276   -0.0898 N   0  0  0  0  0  0  0  0  0  0  0  0
    4.8411   -0.7028    0.4132 C   0  0  0  0  0  0  0  0  0  0  0  0
    6.1973   -0.8065    0.7930 C   0  0  0  0  0  0  0  0  0  0  0  0
    4.0738    0.4753    0.5158 C   0  0  0  0  0  0  0  0  0  0  0  0
    6.7951    0.3345    1.2976 C   0  0  0  0  0  0  0  0  0  0  0  0
    6.7375   -1.7413    0.6909 H   0  0  0  0  0  0  0  0  0  0  0  0
    4.7128    1.5961    1.0273 C   0  0  0  0  0  0  0  0  0  0  0  0
    3.0274    0.5071    0.2110 H   0  0  0  0  0  0  0  0  0  0  0  0
    6.0606    1.5279    1.4147 C   0  0  0  0  0  0  0  0  0  0  0  0
    7.8333    0.3303    1.6107 H   0  0  0  0  0  0  0  0  0  0  0  0
    4.1661    2.5266    1.1279 H   0  0  0  0  0  0  0  0  0  0  0  0
   -2.4683    1.5650    1.7604 C   0  0  0  0  0  0  0  0  0  0  0  0
   -2.2611    1.1598    2.8849 O   0  0  0  0  0  0  0  0  0  0  0  0
   -3.6612    2.0528    1.3590 O   0  0  0  0  0  0  0  0  0  0  0  0
   -4.2566    2.0013    2.1260 H   0  0  0  0  0  0  0  0  0  0  0  0
    6.7912    2.7222    1.9747 C   0  0  0  0  0  0  0  0  0  0  0  0
    7.9513    2.6744    2.3110 O   0  0  0  0  0  0  0  0  0  0  0  0
    6.0058    3.8055    2.0453 O   0  0  0  0  0  0  0  0  0  0  0  0
    6.5321    4.5374    2.4128 H   0  0  0  0  0  0  0  0  0  0  0  0
  1  2  2  0  0  0  0
  1  6  1  0  0  0  0
  2  3  1  0  0  0  0
  3  4  2  0  0  0  0
  4  9  1  0  0  0  0
  5  4  1  0  0  0  0
  5 22  1  0  0  0  0
  6  5  2  0  0  0  0
  7  1  1  0  0  0  0
  8  6  1  0  0  0  0
 10 11  1  0  0  0  0
 11 12  1  0  0  0  0
 12 14  2  0  0  0  0
 12 13  1  0  0  0  0
 13 15  2  0  0  0  0
 14 17  1  0  0  0  0
 15 19  1  0  0  0  0
 15 20  1  0  0  0  0
 16 13  1  0  0  0  0
 17 21  1  0  0  0  0
 17 19  2  0  0  0  0
 18 14  1  0  0  0  0
 19 26  1  0  0  0  0
 22 23  2  0  0  0  0
 24 22  1  0  0  0  0
 24 25  1  0  0  0  0
 26 28  1  0  0  0  0
 26 27  2  0  0  0  0
 28 29  1  0  0  0  0
M  RAD  4   2   2   3   2  10   3  11   2
M  END
