Coordinates from ORCA-job 1g-Schema6-R11-K+-B3LYPG-6-31G_dp-scan-d49-09-n400
 OpenBabel08281819543D

 29 31  0  0  1  0  0  0  0  0999 V2000
    1.2292    2.1319    0.5668 C   0  0  0  0  0  0  0  0  0  0  0  0
    1.9586    1.0077    0.2213 C   0  0  0  0  0  0  0  0  0  0  0  0
    1.3179   -0.2583    0.1731 C   0  0  0  0  0  0  0  0  0  0  0  0
   -0.0556   -0.3467    0.4665 C   0  0  0  0  0  0  0  0  0  0  0  0
   -0.7706    0.7798    0.8746 C   0  0  0  0  0  0  0  0  0  0  0  0
   -0.1254    2.0177    0.9255 C   0  0  0  0  0  0  0  0  0  0  0  0
    1.7030    3.1078    0.5821 H   0  0  0  0  0  0  0  0  0  0  0  0
   -0.6742    2.8968    1.2443 H   0  0  0  0  0  0  0  0  0  0  0  0
   -0.5601   -1.3047    0.3855 H   0  0  0  0  0  0  0  0  0  0  0  0
    1.9134   -1.3906   -0.2830 N   0  0  0  0  0  0  0  0  0  0  0  0
    3.1189   -1.3039   -0.0362 N   0  0  0  0  0  0  0  0  0  0  0  0
    3.9027   -0.2732    0.2642 C   0  0  0  0  0  0  0  0  0  0  0  0
    5.0212   -0.4116    1.1053 C   0  0  0  0  0  0  0  0  0  0  0  0
    3.4316    1.0479   -0.2389 C   0  0  2  0  0  0  0  0  0  0  0  0
    5.7194    0.7230    1.4560 C   0  0  0  0  0  0  0  0  0  0  0  0
    5.2921   -1.3923    1.4796 H   0  0  0  0  0  0  0  0  0  0  0  0
    4.2867    2.2011    0.1577 C   0  0  0  0  0  0  0  0  0  0  0  0
    3.3876    1.0618   -1.3449 H   0  0  0  0  0  0  0  0  0  0  0  0
    5.3629    2.0310    0.9701 C   0  0  0  0  0  0  0  0  0  0  0  0
    6.5805    0.6620    2.1156 H   0  0  0  0  0  0  0  0  0  0  0  0
    4.0782    3.1730   -0.2772 H   0  0  0  0  0  0  0  0  0  0  0  0
   -2.2196    0.5994    1.2193 C   0  0  0  0  0  0  0  0  0  0  0  0
   -2.7851   -0.4682    1.1608 O   0  0  0  0  0  0  0  0  0  0  0  0
   -2.7987    1.7526    1.5968 O   0  0  0  0  0  0  0  0  0  0  0  0
   -3.7289    1.5592    1.8063 H   0  0  0  0  0  0  0  0  0  0  0  0
    6.2515    3.1689    1.3929 C   0  0  0  0  0  0  0  0  0  0  0  0
    7.1950    3.0166    2.1328 O   0  0  0  0  0  0  0  0  0  0  0  0
    5.8634    4.3393    0.8640 O   0  0  0  0  0  0  0  0  0  0  0  0
    6.4769    5.0273    1.1764 H   0  0  0  0  0  0  0  0  0  0  0  0
  1  7  1  0  0  0  0
  1  6  2  0  0  0  0
  2  1  1  0  0  0  0
  3  2  2  0  0  0  0
  3  4  1  0  0  0  0
  4  5  2  0  0  0  0
  5  6  1  0  0  0  0
  5 22  1  0  0  0  0
  6  8  1  0  0  0  0
  9  4  1  0  0  0  0
 10 11  1  0  0  0  0
 10  3  1  0  0  0  0
 11 12  1  0  0  0  0
 12 13  2  0  0  0  0
 13 15  1  0  0  0  0
 13 16  1  0  0  0  0
 14 18  1  6  0  0  0
 14 17  1  0  0  0  0
 14  2  1  0  0  0  0
 14 12  1  0  0  0  0
 15 20  1  0  0  0  0
 17 19  2  0  0  0  0
 19 26  1  0  0  0  0
 19 15  1  0  0  0  0
 21 17  1  0  0  0  0
 22 24  1  0  0  0  0
 23 22  2  0  0  0  0
 24 25  1  0  0  0  0
 26 27  2  0  0  0  0
 28 29  1  0  0  0  0
 28 26  1  0  0  0  0
M  RAD  3  10   2  11   2  15   2
M  END
