Coordinates from ORCA-job 1g-Schema6-R11-K+-B3LYPG-6-31G_dp-scan-d49-09-n400
 OpenBabel08281819543D

 29 29  0  0  0  0  0  0  0  0999 V2000
   -0.8432    2.0752   -1.6911 C   0  0  0  0  0  0  0  0  0  0  0  0
    0.3622    1.6739   -1.1691 C   0  0  0  0  0  0  0  0  0  0  0  0
    0.7342    1.2486   -0.0478 C   0  0  0  0  0  0  0  0  0  0  0  0
   -0.1887    1.1085    0.9919 C   0  0  0  0  0  0  0  0  0  0  0  0
   -1.5026    1.4829    0.6222 C   0  0  0  0  0  0  0  0  0  0  0  0
   -1.8154    1.9497   -0.6730 C   0  0  0  0  0  0  0  0  0  0  0  0
   -1.0659    2.4331   -2.6876 H   0  0  0  0  0  0  0  0  0  0  0  0
   -2.8400    2.2262   -0.8992 H   0  0  0  0  0  0  0  0  0  0  0  0
    0.0111    0.7573    1.9976 H   0  0  0  0  0  0  0  0  0  0  0  0
    3.2886   -2.4091   -0.3190 N   0  0  0  0  0  0  0  0  0  0  0  0
    3.9156   -1.5651    0.0527 N   0  0  0  0  0  0  0  0  0  0  0  0
    4.6867   -0.5205    0.5119 C   0  0  0  0  0  0  0  0  0  0  0  0
    6.0353   -0.7871    0.8342 C   0  0  0  0  0  0  0  0  0  0  0  0
    4.0744    0.7431    0.6302 C   0  0  0  0  0  0  0  0  0  0  0  0
    6.7905    0.2760    1.2964 C   0  0  0  0  0  0  0  0  0  0  0  0
    6.4514   -1.7822    0.7219 H   0  0  0  0  0  0  0  0  0  0  0  0
    4.8683    1.7814    1.0969 C   0  0  0  0  0  0  0  0  0  0  0  0
    3.0261    0.8898    0.3675 H   0  0  0  0  0  0  0  0  0  0  0  0
    6.2134    1.5516    1.4277 C   0  0  0  0  0  0  0  0  0  0  0  0
    7.8331    0.1461    1.5652 H   0  0  0  0  0  0  0  0  0  0  0  0
    4.4470    2.7738    1.2083 H   0  0  0  0  0  0  0  0  0  0  0  0
   -2.5506    1.3571    1.6827 C   0  0  0  0  0  0  0  0  0  0  0  0
   -2.3311    0.9577    2.8069 O   0  0  0  0  0  0  0  0  0  0  0  0
   -3.7748    1.7350    1.2586 O   0  0  0  0  0  0  0  0  0  0  0  0
   -4.3799    1.6189    2.0108 H   0  0  0  0  0  0  0  0  0  0  0  0
    7.1074    2.6525    1.9400 C   0  0  0  0  0  0  0  0  0  0  0  0
    8.2659    2.4667    2.2303 O   0  0  0  0  0  0  0  0  0  0  0  0
    6.4635    3.8246    2.0270 O   0  0  0  0  0  0  0  0  0  0  0  0
    7.0898    4.4896    2.3631 H   0  0  0  0  0  0  0  0  0  0  0  0
  1  2  2  0  0  0  0
  1  6  1  0  0  0  0
  2  3  1  0  0  0  0
  3  4  2  0  0  0  0
  4  9  1  0  0  0  0
  5  4  1  0  0  0  0
  5 22  1  0  0  0  0
  6  5  2  0  0  0  0
  7  1  1  0  0  0  0
  8  6  1  0  0  0  0
 10 11  1  0  0  0  0
 11 12  1  0  0  0  0
 12 14  2  0  0  0  0
 12 13  1  0  0  0  0
 13 15  2  0  0  0  0
 14 17  1  0  0  0  0
 15 19  1  0  0  0  0
 15 20  1  0  0  0  0
 16 13  1  0  0  0  0
 17 21  1  0  0  0  0
 17 19  2  0  0  0  0
 18 14  1  0  0  0  0
 19 26  1  0  0  0  0
 22 23  2  0  0  0  0
 24 22  1  0  0  0  0
 24 25  1  0  0  0  0
 26 28  1  0  0  0  0
 26 27  2  0  0  0  0
 28 29  1  0  0  0  0
M  RAD  4   2   2   3   2  10   3  11   2
M  END
