Coordinates from ORCA-job 1g-Schema6-R11-K+-B3LYPG-6-31G_dp-scan-d49-09-n400
 OpenBabel08281819543D

 29 29  0  0  0  0  0  0  0  0999 V2000
   -0.7788    2.0993   -1.6545 C   0  0  0  0  0  0  0  0  0  0  0  0
    0.3964    1.5854   -1.1600 C   0  0  0  0  0  0  0  0  0  0  0  0
    0.7425    1.1338   -0.0414 C   0  0  0  0  0  0  0  0  0  0  0  0
   -0.1610    1.0852    1.0212 C   0  0  0  0  0  0  0  0  0  0  0  0
   -1.4401    1.5849    0.6770 C   0  0  0  0  0  0  0  0  0  0  0  0
   -1.7350    2.0736   -0.6145 C   0  0  0  0  0  0  0  0  0  0  0  0
   -0.9900    2.4717   -2.6484 H   0  0  0  0  0  0  0  0  0  0  0  0
   -2.7335    2.4452   -0.8197 H   0  0  0  0  0  0  0  0  0  0  0  0
    0.0266    0.7189    2.0237 H   0  0  0  0  0  0  0  0  0  0  0  0
    3.7441   -2.7504   -0.4971 N   0  0  0  0  0  0  0  0  0  0  0  0
    4.2394   -1.8378   -0.0901 N   0  0  0  0  0  0  0  0  0  0  0  0
    4.8486   -0.7098    0.4125 C   0  0  0  0  0  0  0  0  0  0  0  0
    6.2046   -0.8082    0.7948 C   0  0  0  0  0  0  0  0  0  0  0  0
    4.0772    0.4656    0.5124 C   0  0  0  0  0  0  0  0  0  0  0  0
    6.7980    0.3354    1.2990 C   0  0  0  0  0  0  0  0  0  0  0  0
    6.7480   -1.7413    0.6945 H   0  0  0  0  0  0  0  0  0  0  0  0
    4.7119    1.5891    1.0236 C   0  0  0  0  0  0  0  0  0  0  0  0
    3.0315    0.4955    0.2066 H   0  0  0  0  0  0  0  0  0  0  0  0
    6.0593    1.5263    1.4134 C   0  0  0  0  0  0  0  0  0  0  0  0
    7.8357    0.3349    1.6137 H   0  0  0  0  0  0  0  0  0  0  0  0
    4.1616    2.5177    1.1221 H   0  0  0  0  0  0  0  0  0  0  0  0
   -2.4707    1.5683    1.7614 C   0  0  0  0  0  0  0  0  0  0  0  0
   -2.2647    1.1598    2.8850 O   0  0  0  0  0  0  0  0  0  0  0  0
   -3.6629    2.0584    1.3606 O   0  0  0  0  0  0  0  0  0  0  0  0
   -4.2587    2.0057    2.1272 H   0  0  0  0  0  0  0  0  0  0  0  0
    6.7846    2.7239    1.9730 C   0  0  0  0  0  0  0  0  0  0  0  0
    7.9443    2.6807    2.3114 O   0  0  0  0  0  0  0  0  0  0  0  0
    5.9953    3.8046    2.0410 O   0  0  0  0  0  0  0  0  0  0  0  0
    6.5183    4.5387    2.4084 H   0  0  0  0  0  0  0  0  0  0  0  0
  1  2  2  0  0  0  0
  1  6  1  0  0  0  0
  2  3  1  0  0  0  0
  3  4  2  0  0  0  0
  4  9  1  0  0  0  0
  5  4  1  0  0  0  0
  5 22  1  0  0  0  0
  6  5  2  0  0  0  0
  7  1  1  0  0  0  0
  8  6  1  0  0  0  0
 10 11  1  0  0  0  0
 11 12  1  0  0  0  0
 12 14  2  0  0  0  0
 12 13  1  0  0  0  0
 13 15  2  0  0  0  0
 14 17  1  0  0  0  0
 15 19  1  0  0  0  0
 15 20  1  0  0  0  0
 16 13  1  0  0  0  0
 17 21  1  0  0  0  0
 17 19  2  0  0  0  0
 18 14  1  0  0  0  0
 19 26  1  0  0  0  0
 22 23  2  0  0  0  0
 24 22  1  0  0  0  0
 24 25  1  0  0  0  0
 26 28  1  0  0  0  0
 26 27  2  0  0  0  0
 28 29  1  0  0  0  0
M  RAD  4   2   2   3   2  10   3  11   2
M  END
