Coordinates from ORCA-job 1g-Schema6-R11-K+-B3LYPG-6-31G_dp-scan-d49-09-n400
 OpenBabel08281819543D

 29 31  0  0  0  0  0  0  0  0999 V2000
    0.9099    2.4617    0.5444 C   0  0  0  0  0  0  0  0  0  0  0  0
    1.8977    1.4849    0.5932 C   0  0  0  0  0  0  0  0  0  0  0  0
    1.5580   -0.0019    0.6428 C   0  0  0  0  0  0  0  0  0  0  0  0
    0.1174   -0.3104    0.8911 C   0  0  0  0  0  0  0  0  0  0  0  0
   -0.8106    0.6848    0.7980 C   0  0  0  0  0  0  0  0  0  0  0  0
   -0.4172    2.0545    0.6257 C   0  0  0  0  0  0  0  0  0  0  0  0
    1.1567    3.5181    0.5096 H   0  0  0  0  0  0  0  0  0  0  0  0
   -1.2042    2.8017    0.6043 H   0  0  0  0  0  0  0  0  0  0  0  0
   -0.1830   -1.3478    1.0067 H   0  0  0  0  0  0  0  0  0  0  0  0
    1.9596   -0.8575   -0.5867 N   0  0  0  0  0  0  0  0  0  0  0  0
    2.4524   -0.6551    0.8132 N   0  0  0  0  0  0  0  0  0  0  0  0
    3.6649    0.1008    0.9056 C   0  0  0  0  0  0  0  0  0  0  0  0
    4.9681   -0.3418    1.0393 C   0  0  0  0  0  0  0  0  0  0  0  0
    3.3118    1.4778    0.7832 C   0  0  0  0  0  0  0  0  0  0  0  0
    5.9463    0.6527    1.0874 C   0  0  0  0  0  0  0  0  0  0  0  0
    5.2121   -1.3946    1.1238 H   0  0  0  0  0  0  0  0  0  0  0  0
    4.3153    2.4633    0.8385 C   0  0  0  0  0  0  0  0  0  0  0  0
    2.5076   -0.1872   -1.1537 H   0  0  0  0  0  0  0  0  0  0  0  0
    5.6284    2.0307    0.9917 C   0  0  0  0  0  0  0  0  0  0  0  0
    6.9924    0.3919    1.2131 H   0  0  0  0  0  0  0  0  0  0  0  0
    4.0890    3.5215    0.7728 H   0  0  0  0  0  0  0  0  0  0  0  0
   -2.2596    0.2939    0.9287 C   0  0  0  0  0  0  0  0  0  0  0  0
   -2.6230   -0.8474    1.0822 O   0  0  0  0  0  0  0  0  0  0  0  0
   -3.0728    1.3609    0.8572 O   0  0  0  0  0  0  0  0  0  0  0  0
   -3.9885    1.0450    0.9535 H   0  0  0  0  0  0  0  0  0  0  0  0
    6.7776    2.9958    1.0708 C   0  0  0  0  0  0  0  0  0  0  0  0
    7.9279    2.6464    1.2009 O   0  0  0  0  0  0  0  0  0  0  0  0
    6.3734    4.2751    0.9798 O   0  0  0  0  0  0  0  0  0  0  0  0
    7.1650    4.8376    1.0397 H   0  0  0  0  0  0  0  0  0  0  0  0
  1  2  2  0  0  0  0
  1  6  1  0  0  0  0
  2  3  1  0  0  0  0
  2 14  1  0  0  0  0
  3 11  1  0  0  0  0
  3  4  2  0  0  0  0
  4  9  1  0  0  0  0
  5  4  1  0  0  0  0
  5 22  1  0  0  0  0
  6  5  2  0  0  0  0
  7  1  1  0  0  0  0
  8  6  1  0  0  0  0
 10 11  1  0  0  0  0
 11 12  1  0  0  0  0
 12 13  2  0  0  0  0
 13 15  1  0  0  0  0
 13 16  1  0  0  0  0
 14 17  2  0  0  0  0
 14 12  1  0  0  0  0
 15 20  1  0  0  0  0
 17 19  1  0  0  0  0
 18 10  1  0  0  0  0
 19 26  1  0  0  0  0
 19 15  2  0  0  0  0
 21 17  1  0  0  0  0
 22 23  2  0  0  0  0
 24 22  1  0  0  0  0
 24 25  1  0  0  0  0
 26 27  2  0  0  0  0
 28 29  1  0  0  0  0
 28 26  1  0  0  0  0
M  RAD  1  10   2
M  END
