Coordinates from ORCA-job 1g-Schema6-R11-K+-B3LYPG-6-31G_dp-scan-d49-09-n400
 OpenBabel08281819543D

 29 29  0  0  0  0  0  0  0  0999 V2000
   -0.8906    1.9386   -1.7232 C   0  0  0  0  0  0  0  0  0  0  0  0
    0.3306    1.6324   -1.1742 C   0  0  0  0  0  0  0  0  0  0  0  0
    0.7111    1.2439   -0.0422 C   0  0  0  0  0  0  0  0  0  0  0  0
   -0.2181    1.0500    0.9837 C   0  0  0  0  0  0  0  0  0  0  0  0
   -1.5483    1.3228    0.5850 C   0  0  0  0  0  0  0  0  0  0  0  0
   -1.8695    1.7523   -0.7210 C   0  0  0  0  0  0  0  0  0  0  0  0
   -1.1199    2.2711   -2.7270 H   0  0  0  0  0  0  0  0  0  0  0  0
   -2.9071    1.9524   -0.9682 H   0  0  0  0  0  0  0  0  0  0  0  0
   -0.0128    0.7267    1.9977 H   0  0  0  0  0  0  0  0  0  0  0  0
    2.7487   -1.8157   -0.1931 N   0  0  0  0  0  0  0  0  0  0  0  0
    3.5337   -1.1044    0.1543 N   0  0  0  0  0  0  0  0  0  0  0  0
    4.4866   -0.2072    0.5847 C   0  0  0  0  0  0  0  0  0  0  0  0
    5.7602   -0.7034    0.9357 C   0  0  0  0  0  0  0  0  0  0  0  0
    4.1166    1.1512    0.6453 C   0  0  0  0  0  0  0  0  0  0  0  0
    6.6941    0.2220    1.3675 C   0  0  0  0  0  0  0  0  0  0  0  0
    5.9881   -1.7614    0.8677 H   0  0  0  0  0  0  0  0  0  0  0  0
    5.0823    2.0456    1.0844 C   0  0  0  0  0  0  0  0  0  0  0  0
    3.1121    1.4569    0.3592 H   0  0  0  0  0  0  0  0  0  0  0  0
    6.3601    1.5858    1.4425 C   0  0  0  0  0  0  0  0  0  0  0  0
    7.6936   -0.0851    1.6551 H   0  0  0  0  0  0  0  0  0  0  0  0
    4.8505    3.1021    1.1527 H   0  0  0  0  0  0  0  0  0  0  0  0
   -2.6049    1.1306    1.6277 C   0  0  0  0  0  0  0  0  0  0  0  0
   -2.3780    0.7517    2.7575 O   0  0  0  0  0  0  0  0  0  0  0  0
   -3.8436    1.4210    1.1791 O   0  0  0  0  0  0  0  0  0  0  0  0
   -4.4541    1.2670    1.9201 H   0  0  0  0  0  0  0  0  0  0  0  0
    7.4373    2.5239    1.9252 C   0  0  0  0  0  0  0  0  0  0  0  0
    8.5415    2.1413    2.2350 O   0  0  0  0  0  0  0  0  0  0  0  0
    7.0183    3.7962    1.9629 O   0  0  0  0  0  0  0  0  0  0  0  0
    7.7541    4.3472    2.2829 H   0  0  0  0  0  0  0  0  0  0  0  0
  1  2  2  0  0  0  0
  1  6  1  0  0  0  0
  2  3  1  0  0  0  0
  3  4  2  0  0  0  0
  4  9  1  0  0  0  0
  5  4  1  0  0  0  0
  5 22  1  0  0  0  0
  6  5  2  0  0  0  0
  7  1  1  0  0  0  0
  8  6  1  0  0  0  0
 10 11  1  0  0  0  0
 11 12  1  0  0  0  0
 12 14  2  0  0  0  0
 12 13  1  0  0  0  0
 13 15  2  0  0  0  0
 14 17  1  0  0  0  0
 15 19  1  0  0  0  0
 15 20  1  0  0  0  0
 16 13  1  0  0  0  0
 17 21  1  0  0  0  0
 17 19  2  0  0  0  0
 18 14  1  0  0  0  0
 19 26  1  0  0  0  0
 22 23  2  0  0  0  0
 24 22  1  0  0  0  0
 24 25  1  0  0  0  0
 26 28  1  0  0  0  0
 26 27  2  0  0  0  0
 28 29  1  0  0  0  0
M  RAD  4   2   2   3   2  10   3  11   2
M  END
