Coordinates from ORCA-job 1g-Schema6-R11-K+-B3LYPG-6-31G_dp-scan-d49-09-n400
 OpenBabel08281819543D

 29 32  0  0  1  0  0  0  0  0999 V2000
    1.0320    2.2925    0.3151 C   0  0  0  0  0  0  0  0  0  0  0  0
    1.8713    1.2128    0.1024 C   0  0  0  0  0  0  0  0  0  0  0  0
    1.3501   -0.1342    0.1316 C   0  0  1  0  0  0  0  0  0  0  0  0
    0.0123   -0.3699    0.5753 C   0  0  0  0  0  0  0  0  0  0  0  0
   -0.7895    0.7192    0.8425 C   0  0  0  0  0  0  0  0  0  0  0  0
   -0.2954    2.0410    0.6788 C   0  0  0  0  0  0  0  0  0  0  0  0
    1.3943    3.3138    0.2671 H   0  0  0  0  0  0  0  0  0  0  0  0
   -0.9635    2.8711    0.8809 H   0  0  0  0  0  0  0  0  0  0  0  0
   -0.3864   -1.3772    0.6393 H   0  0  0  0  0  0  0  0  0  0  0  0
    2.0493   -1.0154   -0.8386 N   0  0  0  0  0  0  0  0  0  0  0  0
    2.6521   -1.0046    0.3530 N   0  0  0  0  0  0  0  0  0  0  0  0
    3.7624   -0.1658    0.5611 C   0  0  0  0  0  0  0  0  0  0  0  0
    4.9293   -0.4151    1.2408 C   0  0  0  0  0  0  0  0  0  0  0  0
    3.3933    1.1601   -0.0039 C   0  0  2  0  0  0  0  0  0  0  0  0
    5.8147    0.6604    1.3831 C   0  0  0  0  0  0  0  0  0  0  0  0
    5.1678   -1.4041    1.6169 H   0  0  0  0  0  0  0  0  0  0  0  0
    4.2770    2.2691    0.3779 C   0  0  0  0  0  0  0  0  0  0  0  0
    3.5441    0.9477   -1.1057 H   0  0  0  0  0  0  0  0  0  0  0  0
    5.4764    1.9875    0.9843 C   0  0  0  0  0  0  0  0  0  0  0  0
    6.7954    0.5127    1.8247 H   0  0  0  0  0  0  0  0  0  0  0  0
    4.0003    3.2940    0.1549 H   0  0  0  0  0  0  0  0  0  0  0  0
   -2.2048    0.4435    1.2712 C   0  0  0  0  0  0  0  0  0  0  0  0
   -2.6444   -0.6731    1.4138 O   0  0  0  0  0  0  0  0  0  0  0  0
   -2.8981    1.5757    1.4781 O   0  0  0  0  0  0  0  0  0  0  0  0
   -3.7969    1.3262    1.7554 H   0  0  0  0  0  0  0  0  0  0  0  0
    6.4823    3.0602    1.3059 C   0  0  0  0  0  0  0  0  0  0  0  0
    7.5494    2.8251    1.8220 O   0  0  0  0  0  0  0  0  0  0  0  0
    6.0516    4.2806    0.9477 O   0  0  0  0  0  0  0  0  0  0  0  0
    6.7459    4.9213    1.1815 H   0  0  0  0  0  0  0  0  0  0  0  0
  1  6  1  0  0  0  0
  2  3  1  0  0  0  0
  2  1  2  0  0  0  0
  3 10  1  6  0  0  0
  3 11  1  0  0  0  0
  3  4  1  0  0  0  0
  4  9  1  0  0  0  0
  4  5  2  0  0  0  0
  5 22  1  0  0  0  0
  6  5  1  0  0  0  0
  6  8  1  0  0  0  0
  7  1  1  0  0  0  0
 10 11  1  0  0  0  0
 11 12  1  0  0  0  0
 12 13  2  0  0  0  0
 13 15  1  0  0  0  0
 13 16  1  0  0  0  0
 14 18  1  6  0  0  0
 14  2  1  0  0  0  0
 14 17  1  0  0  0  0
 14 12  1  0  0  0  0
 15 20  1  0  0  0  0
 17 19  2  0  0  0  0
 19 26  1  0  0  0  0
 19 15  1  0  0  0  0
 21 17  1  0  0  0  0
 22 23  2  0  0  0  0
 22 24  1  0  0  0  0
 24 25  1  0  0  0  0
 26 27  2  0  0  0  0
 28 29  1  0  0  0  0
 28 26  1  0  0  0  0
M  RAD  3   6   2  10   2  15   2
M  END
