Coordinates from ORCA-job 1g-Schema6-R11-K+-B3LYPG-6-31G_dp-scan-d49-09-n400
 OpenBabel08281819543D

 29 31  0  0  1  0  0  0  0  0999 V2000
    1.2297    2.1552    0.3776 C   0  0  0  0  0  0  0  0  0  0  0  0
    1.9641    1.0489    0.0083 C   0  0  0  0  0  0  0  0  0  0  0  0
    1.3563   -0.2590    0.0300 C   0  0  0  0  0  0  0  0  0  0  0  0
    0.0048   -0.3459    0.4355 C   0  0  0  0  0  0  0  0  0  0  0  0
   -0.6986    0.7690    0.8940 C   0  0  0  0  0  0  0  0  0  0  0  0
   -0.0919    2.0240    0.8462 C   0  0  0  0  0  0  0  0  0  0  0  0
    1.6904    3.1371    0.3562 H   0  0  0  0  0  0  0  0  0  0  0  0
   -0.6348    2.8997    1.1834 H   0  0  0  0  0  0  0  0  0  0  0  0
   -0.5045   -1.3044    0.3888 H   0  0  0  0  0  0  0  0  0  0  0  0
    1.8785   -1.3631   -0.5673 N   0  0  0  0  0  0  0  0  0  0  0  0
    2.9290   -1.0963   -0.0142 N   0  0  0  0  0  0  0  0  0  0  0  0
    3.8713   -0.2673    0.2343 C   0  0  0  0  0  0  0  0  0  0  0  0
    4.9035   -0.4046    1.2150 C   0  0  0  0  0  0  0  0  0  0  0  0
    3.4593    1.0667   -0.3718 C   0  0  2  0  0  0  0  0  0  0  0  0
    5.5918    0.7131    1.5698 C   0  0  0  0  0  0  0  0  0  0  0  0
    5.1007   -1.3761    1.6523 H   0  0  0  0  0  0  0  0  0  0  0  0
    4.3217    2.2009    0.0919 C   0  0  0  0  0  0  0  0  0  0  0  0
    3.5093    1.0469   -1.4749 H   0  0  0  0  0  0  0  0  0  0  0  0
    5.3058    2.0212    1.0002 C   0  0  0  0  0  0  0  0  0  0  0  0
    6.3981    0.6620    2.2947 H   0  0  0  0  0  0  0  0  0  0  0  0
    4.1839    3.1647   -0.3874 H   0  0  0  0  0  0  0  0  0  0  0  0
   -2.1066    0.5557    1.3669 C   0  0  0  0  0  0  0  0  0  0  0  0
   -2.6398   -0.5301    1.3822 O   0  0  0  0  0  0  0  0  0  0  0  0
   -2.6861    1.7003    1.7663 O   0  0  0  0  0  0  0  0  0  0  0  0
   -3.5895    1.4875    2.0582 H   0  0  0  0  0  0  0  0  0  0  0  0
    6.1883    3.1470    1.4583 C   0  0  0  0  0  0  0  0  0  0  0  0
    7.0724    2.9963    2.2702 O   0  0  0  0  0  0  0  0  0  0  0  0
    5.8765    4.3163    0.8743 O   0  0  0  0  0  0  0  0  0  0  0  0
    6.4889    4.9897    1.2179 H   0  0  0  0  0  0  0  0  0  0  0  0
  1  6  2  0  0  0  0
  2  3  2  0  0  0  0
  2  1  1  0  0  0  0
  3  4  1  0  0  0  0
  4  5  2  0  0  0  0
  5 22  1  0  0  0  0
  6  5  1  0  0  0  0
  6  8  1  0  0  0  0
  7  1  1  0  0  0  0
  9  4  1  0  0  0  0
 10 11  1  0  0  0  0
 10  3  1  0  0  0  0
 11 12  2  0  0  0  0
 12 13  1  0  0  0  0
 13 15  2  0  0  0  0
 13 16  1  0  0  0  0
 14 18  1  6  0  0  0
 14  2  1  0  0  0  0
 14 17  1  0  0  0  0
 14 12  1  0  0  0  0
 15 20  1  0  0  0  0
 17 19  2  0  0  0  0
 19 26  1  0  0  0  0
 19 15  1  0  0  0  0
 21 17  1  0  0  0  0
 22 23  2  0  0  0  0
 22 24  1  0  0  0  0
 24 25  1  0  0  0  0
 26 27  2  0  0  0  0
 28 29  1  0  0  0  0
 28 26  1  0  0  0  0
M  RAD  1  10   2
M  END
