Coordinates from ORCA-job 1g-Schema6-R11-K+-B3LYPG-6-31G_dp-scan-d49-09-n400
 OpenBabel08281819543D

 29 29  0  0  0  0  0  0  0  0999 V2000
   -1.0009    1.4918   -1.8687 C   0  0  0  0  0  0  0  0  0  0  0  0
    0.1384    0.8883   -1.4090 C   0  0  0  0  0  0  0  0  0  0  0  0
    0.5442    0.4521   -0.2984 C   0  0  0  0  0  0  0  0  0  0  0  0
   -0.3030    0.5478    0.8125 C   0  0  0  0  0  0  0  0  0  0  0  0
   -1.5461    1.1580    0.5264 C   0  0  0  0  0  0  0  0  0  0  0  0
   -1.8820    1.6103   -0.7675 C   0  0  0  0  0  0  0  0  0  0  0  0
   -1.2394    1.8326   -2.8674 H   0  0  0  0  0  0  0  0  0  0  0  0
   -2.8524    2.0669   -0.9322 H   0  0  0  0  0  0  0  0  0  0  0  0
   -0.0887    0.2034    1.8180 H   0  0  0  0  0  0  0  0  0  0  0  0
    2.4566   -1.2804   -0.2433 N   0  0  0  0  0  0  0  0  0  0  0  0
    3.3933   -0.7863    0.1268 N   0  0  0  0  0  0  0  0  0  0  0  0
    4.4139    0.0218    0.5870 C   0  0  0  0  0  0  0  0  0  0  0  0
    5.6791   -0.5477    0.8203 C   0  0  0  0  0  0  0  0  0  0  0  0
    4.1113    1.3816    0.7953 C   0  0  0  0  0  0  0  0  0  0  0  0
    6.6769    0.2954    1.2832 C   0  0  0  0  0  0  0  0  0  0  0  0
    5.8560   -1.6023    0.6413 H   0  0  0  0  0  0  0  0  0  0  0  0
    5.1337    2.1960    1.2602 C   0  0  0  0  0  0  0  0  0  0  0  0
    3.1137    1.7576    0.5944 H   0  0  0  0  0  0  0  0  0  0  0  0
    6.4081    1.6563    1.5023 C   0  0  0  0  0  0  0  0  0  0  0  0
    7.6756   -0.0760    1.4843 H   0  0  0  0  0  0  0  0  0  0  0  0
    4.9518    3.2491    1.4389 H   0  0  0  0  0  0  0  0  0  0  0  0
   -2.4949    1.2997    1.6770 C   0  0  0  0  0  0  0  0  0  0  0  0
   -2.2364    0.9499    2.8085 O   0  0  0  0  0  0  0  0  0  0  0  0
   -3.6663    1.8636    1.3205 O   0  0  0  0  0  0  0  0  0  0  0  0
   -4.2139    1.9130    2.1227 H   0  0  0  0  0  0  0  0  0  0  0  0
    7.5474    2.5037    2.0060 C   0  0  0  0  0  0  0  0  0  0  0  0
    8.6500    2.0556    2.2185 O   0  0  0  0  0  0  0  0  0  0  0  0
    7.1852    3.7827    2.1860 O   0  0  0  0  0  0  0  0  0  0  0  0
    7.9613    4.2706    2.5133 H   0  0  0  0  0  0  0  0  0  0  0  0
  1  2  2  0  0  0  0
  1  6  1  0  0  0  0
  2  3  1  0  0  0  0
  3  4  2  0  0  0  0
  4  9  1  0  0  0  0
  5  4  1  0  0  0  0
  5 22  1  0  0  0  0
  6  5  2  0  0  0  0
  7  1  1  0  0  0  0
  8  6  1  0  0  0  0
 10 11  1  0  0  0  0
 11 12  1  0  0  0  0
 12 14  2  0  0  0  0
 12 13  1  0  0  0  0
 13 15  2  0  0  0  0
 14 17  1  0  0  0  0
 15 20  1  0  0  0  0
 15 19  1  0  0  0  0
 16 13  1  0  0  0  0
 17 21  1  0  0  0  0
 17 19  2  0  0  0  0
 18 14  1  0  0  0  0
 19 26  1  0  0  0  0
 22 23  2  0  0  0  0
 24 22  1  0  0  0  0
 24 25  1  0  0  0  0
 26 28  1  0  0  0  0
 26 27  2  0  0  0  0
 28 29  1  0  0  0  0
M  RAD  4   2   2   3   2  10   3  11   2
M  END
