Coordinates from ORCA-job 1g-Schema6-R11-K+-B3LYPG-6-31G_dp-scan-d49-09-n400
 OpenBabel08281819543D

 29 29  0  0  0  0  0  0  0  0999 V2000
   -0.6679    2.2492   -1.5775 C   0  0  0  0  0  0  0  0  0  0  0  0
    0.4830    1.6615   -1.1057 C   0  0  0  0  0  0  0  0  0  0  0  0
    0.7930    1.1423   -0.0064 C   0  0  0  0  0  0  0  0  0  0  0  0
   -0.1154    1.0789    1.0495 C   0  0  0  0  0  0  0  0  0  0  0  0
   -1.3688    1.6508    0.7225 C   0  0  0  0  0  0  0  0  0  0  0  0
   -1.6320    2.2146   -0.5453 C   0  0  0  0  0  0  0  0  0  0  0  0
   -0.8566    2.6781   -2.5530 H   0  0  0  0  0  0  0  0  0  0  0  0
   -2.6122    2.6384   -0.7370 H   0  0  0  0  0  0  0  0  0  0  0  0
    0.0487    0.6556    2.0334 H   0  0  0  0  0  0  0  0  0  0  0  0
    4.0410   -2.9922   -0.5169 N   0  0  0  0  0  0  0  0  0  0  0  0
    4.4438   -2.0332   -0.1140 N   0  0  0  0  0  0  0  0  0  0  0  0
    4.9397   -0.8488    0.3831 C   0  0  0  0  0  0  0  0  0  0  0  0
    6.2800   -0.8292    0.8279 C   0  0  0  0  0  0  0  0  0  0  0  0
    4.0758    0.2645    0.4152 C   0  0  0  0  0  0  0  0  0  0  0  0
    6.7576    0.3706    1.3246 C   0  0  0  0  0  0  0  0  0  0  0  0
    6.8989   -1.7183    0.7788 H   0  0  0  0  0  0  0  0  0  0  0  0
    4.5948    1.4478    0.9212 C   0  0  0  0  0  0  0  0  0  0  0  0
    3.0462    0.2098    0.0660 H   0  0  0  0  0  0  0  0  0  0  0  0
    5.9235    1.5020    1.3717 C   0  0  0  0  0  0  0  0  0  0  0  0
    7.7765    0.4600    1.6848 H   0  0  0  0  0  0  0  0  0  0  0  0
    3.9664    2.3296    0.9676 H   0  0  0  0  0  0  0  0  0  0  0  0
   -2.4077    1.6259    1.7986 C   0  0  0  0  0  0  0  0  0  0  0  0
   -2.2281    1.1559    2.9025 O   0  0  0  0  0  0  0  0  0  0  0  0
   -3.5756    2.1834    1.4144 O   0  0  0  0  0  0  0  0  0  0  0  0
   -4.1793    2.1185    2.1739 H   0  0  0  0  0  0  0  0  0  0  0  0
    6.5262    2.7671    1.9283 C   0  0  0  0  0  0  0  0  0  0  0  0
    7.6683    2.8237    2.3205 O   0  0  0  0  0  0  0  0  0  0  0  0
    5.6532    3.7835    1.9288 O   0  0  0  0  0  0  0  0  0  0  0  0
    6.0994    4.5652    2.2995 H   0  0  0  0  0  0  0  0  0  0  0  0
  1  2  2  0  0  0  0
  1  6  1  0  0  0  0
  2  3  1  0  0  0  0
  3  4  2  0  0  0  0
  4  9  1  0  0  0  0
  5  4  1  0  0  0  0
  5 22  1  0  0  0  0
  6  5  2  0  0  0  0
  7  1  1  0  0  0  0
  8  6  1  0  0  0  0
 10 11  1  0  0  0  0
 11 12  1  0  0  0  0
 12 14  2  0  0  0  0
 12 13  1  0  0  0  0
 13 15  2  0  0  0  0
 14 17  1  0  0  0  0
 15 19  1  0  0  0  0
 15 20  1  0  0  0  0
 16 13  1  0  0  0  0
 17 21  1  0  0  0  0
 17 19  2  0  0  0  0
 18 14  1  0  0  0  0
 19 26  1  0  0  0  0
 22 23  2  0  0  0  0
 24 22  1  0  0  0  0
 24 25  1  0  0  0  0
 26 28  1  0  0  0  0
 26 27  2  0  0  0  0
 28 29  1  0  0  0  0
M  RAD  4   2   2   3   2  10   3  11   2
M  END
