Coordinates from ORCA-job 1g-Schema6-R11-K+-B3LYPG-6-31G_dp-scan-d49-09-n400
 OpenBabel08281819543D

 29 30  0  0  0  0  0  0  0  0999 V2000
   -0.7016    1.5228   -1.7635 C   0  0  0  0  0  0  0  0  0  0  0  0
    0.2742    0.5932   -1.7309 C   0  0  0  0  0  0  0  0  0  0  0  0
    1.0395   -0.0122   -0.8431 C   0  0  0  0  0  0  0  0  0  0  0  0
    0.5741    0.2382    0.4763 C   0  0  0  0  0  0  0  0  0  0  0  0
   -0.5058    1.1067    0.6574 C   0  0  0  0  0  0  0  0  0  0  0  0
   -1.1439    1.7301   -0.4310 C   0  0  0  0  0  0  0  0  0  0  0  0
   -1.1957    1.9490   -2.6290 H   0  0  0  0  0  0  0  0  0  0  0  0
   -2.0321    2.3355   -0.2749 H   0  0  0  0  0  0  0  0  0  0  0  0
    1.0811   -0.1904    1.3365 H   0  0  0  0  0  0  0  0  0  0  0  0
    2.1022   -1.0522   -1.1164 N   0  0  0  0  0  0  0  0  0  0  0  0
    3.1884   -1.0370   -0.5943 N   0  0  0  0  0  0  0  0  0  0  0  0
    3.9007   -0.0758    0.1371 C   0  0  0  0  0  0  0  0  0  0  0  0
    4.8052   -0.5729    1.0934 C   0  0  0  0  0  0  0  0  0  0  0  0
    3.8043    1.3024   -0.1433 C   0  0  0  0  0  0  0  0  0  0  0  0
    5.5549    0.3263    1.8369 C   0  0  0  0  0  0  0  0  0  0  0  0
    4.8863   -1.6438    1.2450 H   0  0  0  0  0  0  0  0  0  0  0  0
    4.5903    2.1843    0.5844 C   0  0  0  0  0  0  0  0  0  0  0  0
    3.1626    1.6662   -0.9374 H   0  0  0  0  0  0  0  0  0  0  0  0
    5.4524    1.7020    1.5837 C   0  0  0  0  0  0  0  0  0  0  0  0
    6.2431   -0.0128    2.6032 H   0  0  0  0  0  0  0  0  0  0  0  0
    4.5506    3.2479    0.3797 H   0  0  0  0  0  0  0  0  0  0  0  0
   -0.9359    1.3521    2.0779 C   0  0  0  0  0  0  0  0  0  0  0  0
   -0.3620    0.8734    3.0290 O   0  0  0  0  0  0  0  0  0  0  0  0
   -2.0095    2.1536    2.1494 O   0  0  0  0  0  0  0  0  0  0  0  0
   -2.2369    2.2666    3.0889 H   0  0  0  0  0  0  0  0  0  0  0  0
    6.3152    2.6207    2.3994 C   0  0  0  0  0  0  0  0  0  0  0  0
    7.0632    2.2318    3.2674 O   0  0  0  0  0  0  0  0  0  0  0  0
    6.1578    3.9122    2.0548 O   0  0  0  0  0  0  0  0  0  0  0  0
    6.7499    4.4374    2.6204 H   0  0  0  0  0  0  0  0  0  0  0  0
  1  2  2  0  0  0  0
  1  6  1  0  0  0  0
  2  3  1  0  0  0  0
  3  4  2  0  0  0  0
  4  5  1  0  0  0  0
  4  9  1  0  0  0  0
  5 22  1  0  0  0  0
  6  8  1  0  0  0  0
  6  5  2  0  0  0  0
  7  1  1  0  0  0  0
 10  3  1  0  0  0  0
 10 11  2  0  0  0  0
 11 12  1  0  0  0  0
 12 13  1  0  0  0  0
 13 16  1  0  0  0  0
 13 15  2  0  0  0  0
 14 12  2  0  0  0  0
 14 17  1  0  0  0  0
 15 20  1  0  0  0  0
 17 19  2  0  0  0  0
 18 14  1  0  0  0  0
 19 15  1  0  0  0  0
 19 26  1  0  0  0  0
 21 17  1  0  0  0  0
 22 24  1  0  0  0  0
 22 23  2  0  0  0  0
 24 25  1  0  0  0  0
 26 27  2  0  0  0  0
 28 26  1  0  0  0  0
 28 29  1  0  0  0  0
M  RAD  1   2   2
M  END
