Coordinates from ORCA-job 1g-Schema6-R11-K+-B3LYPG-6-31G_dp-scan-d49-09-n400
 OpenBabel08281819543D

 29 31  0  0  0  0  0  0  0  0999 V2000
    0.9050    2.5725    0.8984 C   0  0  0  0  0  0  0  0  0  0  0  0
    1.8899    1.6025    0.8019 C   0  0  0  0  0  0  0  0  0  0  0  0
    1.5764    0.1329    0.6280 C   0  0  0  0  0  0  0  0  0  0  0  0
    0.1408   -0.1770    0.5719 C   0  0  0  0  0  0  0  0  0  0  0  0
   -0.7993    0.8123    0.6705 C   0  0  0  0  0  0  0  0  0  0  0  0
   -0.4274    2.1805    0.8328 C   0  0  0  0  0  0  0  0  0  0  0  0
    1.1666    3.6182    1.0240 H   0  0  0  0  0  0  0  0  0  0  0  0
   -1.2153    2.9224    0.9061 H   0  0  0  0  0  0  0  0  0  0  0  0
   -0.2119   -1.1973    0.4504 H   0  0  0  0  0  0  0  0  0  0  0  0
    2.5653   -1.7448    0.4281 N   0  0  0  0  0  0  0  0  0  0  0  0
    2.3219   -0.4373    0.5744 N   0  0  0  0  0  0  0  0  0  0  0  0
    3.6856    0.2821    0.6771 C   0  0  0  0  0  0  0  0  0  0  0  0
    4.9562   -0.2212    0.6370 C   0  0  0  0  0  0  0  0  0  0  0  0
    3.3267    1.6201    0.8256 C   0  0  0  0  0  0  0  0  0  0  0  0
    5.9629    0.7549    0.7629 C   0  0  0  0  0  0  0  0  0  0  0  0
    5.1665   -1.2768    0.5173 H   0  0  0  0  0  0  0  0  0  0  0  0
    4.3374    2.5798    0.9502 C   0  0  0  0  0  0  0  0  0  0  0  0
    1.6557   -2.2191    0.3579 H   0  0  0  0  0  0  0  0  0  0  0  0
    5.6616    2.1199    0.9156 C   0  0  0  0  0  0  0  0  0  0  0  0
    7.0090    0.4668    0.7441 H   0  0  0  0  0  0  0  0  0  0  0  0
    4.1264    3.6360    1.0698 H   0  0  0  0  0  0  0  0  0  0  0  0
   -2.2421    0.3847    0.5998 C   0  0  0  0  0  0  0  0  0  0  0  0
   -2.5795   -0.7681    0.4638 O   0  0  0  0  0  0  0  0  0  0  0  0
   -3.0789    1.4276    0.7050 O   0  0  0  0  0  0  0  0  0  0  0  0
   -3.9901    1.0889    0.6521 H   0  0  0  0  0  0  0  0  0  0  0  0
    6.8247    3.0625    1.0394 C   0  0  0  0  0  0  0  0  0  0  0  0
    7.9792    2.7039    1.0118 O   0  0  0  0  0  0  0  0  0  0  0  0
    6.4287    4.3412    1.1836 O   0  0  0  0  0  0  0  0  0  0  0  0
    7.2305    4.8871    1.2575 H   0  0  0  0  0  0  0  0  0  0  0  0
  1  7  1  0  0  0  0
  2 14  1  0  0  0  0
  2  1  2  0  0  0  0
  3  2  1  0  0  0  0
  4  3  2  0  0  0  0
  4  5  1  0  0  0  0
  5  6  2  0  0  0  0
  6  1  1  0  0  0  0
  6  8  1  0  0  0  0
  9  4  1  0  0  0  0
 10 11  1  0  0  0  0
 11  3  1  0  0  0  0
 11 12  1  0  0  0  0
 12 14  1  0  0  0  0
 13 12  2  0  0  0  0
 13 15  1  0  0  0  0
 14 17  2  0  0  0  0
 15 19  2  0  0  0  0
 16 13  1  0  0  0  0
 17 21  1  0  0  0  0
 18 10  1  0  0  0  0
 19 17  1  0  0  0  0
 19 26  1  0  0  0  0
 20 15  1  0  0  0  0
 22  5  1  0  0  0  0
 22 24  1  0  0  0  0
 23 22  2  0  0  0  0
 25 24  1  0  0  0  0
 26 28  1  0  0  0  0
 27 26  2  0  0  0  0
 28 29  1  0  0  0  0
M  RAD  1  10   2
M  END
