Coordinates from ORCA-job 1g-Schema6-R11-K+-B3LYPG-6-31G_dp-scan-d49-09-n400
 OpenBabel08281819543D

 29 29  0  0  0  0  0  0  0  0999 V2000
   -0.7999    2.0618   -1.6748 C   0  0  0  0  0  0  0  0  0  0  0  0
    0.3834    1.5757   -1.1728 C   0  0  0  0  0  0  0  0  0  0  0  0
    0.7401    1.1404   -0.0507 C   0  0  0  0  0  0  0  0  0  0  0  0
   -0.1660    1.0843    1.0102 C   0  0  0  0  0  0  0  0  0  0  0  0
   -1.4542    1.5551    0.6602 C   0  0  0  0  0  0  0  0  0  0  0  0
   -1.7570    2.0263   -0.6359 C   0  0  0  0  0  0  0  0  0  0  0  0
   -1.0162    2.4211   -2.6723 H   0  0  0  0  0  0  0  0  0  0  0  0
   -2.7622    2.3766   -0.8460 H   0  0  0  0  0  0  0  0  0  0  0  0
    0.0272    0.7313    2.0164 H   0  0  0  0  0  0  0  0  0  0  0  0
    3.6083   -2.6485   -0.4662 N   0  0  0  0  0  0  0  0  0  0  0  0
    4.1431   -1.7563   -0.0640 N   0  0  0  0  0  0  0  0  0  0  0  0
    4.8004   -0.6529    0.4330 C   0  0  0  0  0  0  0  0  0  0  0  0
    6.1588   -0.7983    0.7903 C   0  0  0  0  0  0  0  0  0  0  0  0
    4.0700    0.5465    0.5524 C   0  0  0  0  0  0  0  0  0  0  0  0
    6.7981    0.3225    1.2895 C   0  0  0  0  0  0  0  0  0  0  0  0
    6.6696   -1.7482    0.6758 H   0  0  0  0  0  0  0  0  0  0  0  0
    4.7499    1.6459    1.0576 C   0  0  0  0  0  0  0  0  0  0  0  0
    3.0202    0.6066    0.2631 H   0  0  0  0  0  0  0  0  0  0  0  0
    6.1011    1.5364    1.4232 C   0  0  0  0  0  0  0  0  0  0  0  0
    7.8406    0.2860    1.5858 H   0  0  0  0  0  0  0  0  0  0  0  0
    4.2331    2.5920    1.1706 H   0  0  0  0  0  0  0  0  0  0  0  0
   -2.4859    1.5277    1.7435 C   0  0  0  0  0  0  0  0  0  0  0  0
   -2.2735    1.1326    2.8706 O   0  0  0  0  0  0  0  0  0  0  0  0
   -3.6869    1.9903    1.3368 O   0  0  0  0  0  0  0  0  0  0  0  0
   -4.2829    1.9327    2.1029 H   0  0  0  0  0  0  0  0  0  0  0  0
    6.8752    2.7062    1.9762 C   0  0  0  0  0  0  0  0  0  0  0  0
    8.0385    2.6232    2.2938 O   0  0  0  0  0  0  0  0  0  0  0  0
    6.1231    3.8118    2.0633 O   0  0  0  0  0  0  0  0  0  0  0  0
    6.6764    4.5264    2.4250 H   0  0  0  0  0  0  0  0  0  0  0  0
  1  2  2  0  0  0  0
  1  6  1  0  0  0  0
  2  3  1  0  0  0  0
  3  4  2  0  0  0  0
  4  9  1  0  0  0  0
  5  4  1  0  0  0  0
  5 22  1  0  0  0  0
  6  5  2  0  0  0  0
  7  1  1  0  0  0  0
  8  6  1  0  0  0  0
 10 11  1  0  0  0  0
 11 12  1  0  0  0  0
 12 14  2  0  0  0  0
 12 13  1  0  0  0  0
 13 15  2  0  0  0  0
 14 17  1  0  0  0  0
 15 19  1  0  0  0  0
 15 20  1  0  0  0  0
 16 13  1  0  0  0  0
 17 21  1  0  0  0  0
 17 19  2  0  0  0  0
 18 14  1  0  0  0  0
 19 26  1  0  0  0  0
 22 23  2  0  0  0  0
 24 22  1  0  0  0  0
 24 25  1  0  0  0  0
 26 28  1  0  0  0  0
 26 27  2  0  0  0  0
 28 29  1  0  0  0  0
M  RAD  4   2   2   3   2  10   3  11   2
M  END
