Coordinates from ORCA-job 1g-Schema6-R11-K+-B3LYPG-6-31G_dp-scan-d49-09-n400
 OpenBabel08281819543D

 29 31  0  0  1  0  0  0  0  0999 V2000
    1.1967    2.1727    0.3061 C   0  0  0  0  0  0  0  0  0  0  0  0
    1.9438    1.0637   -0.0268 C   0  0  0  0  0  0  0  0  0  0  0  0
    1.3415   -0.2530    0.0334 C   0  0  0  0  0  0  0  0  0  0  0  0
   -0.0018   -0.3511    0.4652 C   0  0  0  0  0  0  0  0  0  0  0  0
   -0.7103    0.7723    0.8869 C   0  0  0  0  0  0  0  0  0  0  0  0
   -0.1214    2.0357    0.7807 C   0  0  0  0  0  0  0  0  0  0  0  0
    1.6444    3.1597    0.2638 H   0  0  0  0  0  0  0  0  0  0  0  0
   -0.6785    2.9146    1.0854 H   0  0  0  0  0  0  0  0  0  0  0  0
   -0.5010   -1.3158    0.4537 H   0  0  0  0  0  0  0  0  0  0  0  0
    1.8919   -1.3461   -0.6028 N   0  0  0  0  0  0  0  0  0  0  0  0
    2.8727   -1.0614    0.0796 N   0  0  0  0  0  0  0  0  0  0  0  0
    3.8734   -0.2771    0.2757 C   0  0  2  0  0  0  0  0  0  0  0  0
    4.9555   -0.4261    1.1990 C   0  0  0  0  0  0  0  0  0  0  0  0
    3.4546    1.0582   -0.3374 C   0  0  2  0  0  0  0  0  0  0  0  0
    5.6595    0.6875    1.5273 C   0  0  0  0  0  0  0  0  0  0  0  0
    5.1850   -1.4044    1.6041 H   0  0  0  0  0  0  0  0  0  0  0  0
    4.3000    2.1981    0.1501 C   0  0  0  0  0  0  0  0  0  0  0  0
    3.5544    1.0219   -1.4387 H   0  0  0  0  0  0  0  0  0  0  0  0
    5.3255    2.0077    1.0061 C   0  0  0  0  0  0  0  0  0  0  0  0
    6.5094    0.6304    2.1998 H   0  0  0  0  0  0  0  0  0  0  0  0
    4.1064    3.1801   -0.2695 H   0  0  0  0  0  0  0  0  0  0  0  0
   -2.1128    0.5627    1.3798 C   0  0  0  0  0  0  0  0  0  0  0  0
   -2.6320   -0.5279    1.4445 O   0  0  0  0  0  0  0  0  0  0  0  0
   -2.7024    1.7163    1.7347 O   0  0  0  0  0  0  0  0  0  0  0  0
   -3.6014    1.5069    2.0426 H   0  0  0  0  0  0  0  0  0  0  0  0
    6.2023    3.1369    1.4646 C   0  0  0  0  0  0  0  0  0  0  0  0
    7.1285    2.9794    2.2269 O   0  0  0  0  0  0  0  0  0  0  0  0
    5.8374    4.3199    0.9407 O   0  0  0  0  0  0  0  0  0  0  0  0
    6.4513    4.9932    1.2818 H   0  0  0  0  0  0  0  0  0  0  0  0
  1  6  2  0  0  0  0
  2  3  2  0  0  0  0
  2  1  1  0  0  0  0
  3  4  1  0  0  0  0
  4  5  2  0  0  0  0
  5 22  1  0  0  0  0
  6  5  1  0  0  0  0
  6  8  1  0  0  0  0
  7  1  1  0  0  0  0
  9  4  1  0  0  0  0
 10  3  1  0  0  0  0
 10 11  1  0  0  0  0
 12 11  1  1  0  0  0
 12 13  1  0  0  0  0
 13 15  2  0  0  0  0
 13 16  1  0  0  0  0
 14 18  1  6  0  0  0
 14  2  1  0  0  0  0
 14 17  1  0  0  0  0
 14 12  1  0  0  0  0
 15 20  1  0  0  0  0
 17 19  2  0  0  0  0
 19 26  1  0  0  0  0
 19 15  1  0  0  0  0
 21 17  1  0  0  0  0
 22 23  2  0  0  0  0
 22 24  1  0  0  0  0
 24 25  1  0  0  0  0
 26 27  2  0  0  0  0
 28 29  1  0  0  0  0
 28 26  1  0  0  0  0
M  RAD  3  10   2  11   2  12   2
M  END
