Coordinates from ORCA-job 1g-Schema6-R11-K+-B3LYPG-6-31G_dp-scan-d49-09-n400
 OpenBabel08281819543D

 29 29  0  0  0  0  0  0  0  0999 V2000
   -0.9748    1.3363   -1.9338 C   0  0  0  0  0  0  0  0  0  0  0  0
    0.1450    0.6047   -1.6730 C   0  0  0  0  0  0  0  0  0  0  0  0
    0.7455    0.1482   -0.6535 C   0  0  0  0  0  0  0  0  0  0  0  0
    0.1471    0.3969    0.5912 C   0  0  0  0  0  0  0  0  0  0  0  0
   -1.0448    1.1518    0.5356 C   0  0  0  0  0  0  0  0  0  0  0  0
   -1.5897    1.6011   -0.6844 C   0  0  0  0  0  0  0  0  0  0  0  0
   -1.3694    1.6728   -2.8833 H   0  0  0  0  0  0  0  0  0  0  0  0
   -2.5136    2.1706   -0.6785 H   0  0  0  0  0  0  0  0  0  0  0  0
    0.5247    0.0524    1.5490 H   0  0  0  0  0  0  0  0  0  0  0  0
    2.2945   -1.2900   -0.6460 N   0  0  0  0  0  0  0  0  0  0  0  0
    3.2216   -0.8497   -0.1618 N   0  0  0  0  0  0  0  0  0  0  0  0
    4.1397    0.0048    0.4206 C   0  0  0  0  0  0  0  0  0  0  0  0
    5.3574   -0.5453    0.8618 C   0  0  0  0  0  0  0  0  0  0  0  0
    3.8240    1.3729    0.5366 C   0  0  0  0  0  0  0  0  0  0  0  0
    6.2808    0.3099    1.4434 C   0  0  0  0  0  0  0  0  0  0  0  0
    5.5541   -1.6052    0.7454 H   0  0  0  0  0  0  0  0  0  0  0  0
    4.7699    2.2045    1.1188 C   0  0  0  0  0  0  0  0  0  0  0  0
    2.8733    1.7508    0.1806 H   0  0  0  0  0  0  0  0  0  0  0  0
    5.9908    1.6766    1.5712 C   0  0  0  0  0  0  0  0  0  0  0  0
    7.2351   -0.0562    1.8048 H   0  0  0  0  0  0  0  0  0  0  0  0
    4.5690    3.2637    1.2283 H   0  0  0  0  0  0  0  0  0  0  0  0
   -1.7014    1.4513    1.8503 C   0  0  0  0  0  0  0  0  0  0  0  0
   -1.2338    1.1213    2.9183 O   0  0  0  0  0  0  0  0  0  0  0  0
   -2.8568    2.1272    1.7107 O   0  0  0  0  0  0  0  0  0  0  0  0
   -3.2140    2.2766    2.6031 H   0  0  0  0  0  0  0  0  0  0  0  0
    7.0430    2.5431    2.2100 C   0  0  0  0  0  0  0  0  0  0  0  0
    8.0998    2.1078    2.6054 O   0  0  0  0  0  0  0  0  0  0  0  0
    6.6661    3.8296    2.2829 O   0  0  0  0  0  0  0  0  0  0  0  0
    7.3893    4.3270    2.7033 H   0  0  0  0  0  0  0  0  0  0  0  0
  1  2  2  0  0  0  0
  1  6  1  0  0  0  0
  2  3  1  0  0  0  0
  3  4  2  0  0  0  0
  4  9  1  0  0  0  0
  5  4  1  0  0  0  0
  5 22  1  0  0  0  0
  6  8  1  0  0  0  0
  6  5  2  0  0  0  0
  7  1  1  0  0  0  0
 10 11  1  0  0  0  0
 11 12  1  0  0  0  0
 12 14  2  0  0  0  0
 12 13  1  0  0  0  0
 13 15  2  0  0  0  0
 14 17  1  0  0  0  0
 15 19  1  0  0  0  0
 15 20  1  0  0  0  0
 16 13  1  0  0  0  0
 17 21  1  0  0  0  0
 17 19  2  0  0  0  0
 18 14  1  0  0  0  0
 19 26  1  0  0  0  0
 22 23  2  0  0  0  0
 24 22  1  0  0  0  0
 24 25  1  0  0  0  0
 26 28  1  0  0  0  0
 26 27  2  0  0  0  0
 28 29  1  0  0  0  0
M  RAD  4   2   2   3   2  10   3  11   2
M  END
