Coordinates from ORCA-job 1g-Schema6-R11-K+-B3LYPG-6-31G_dp-scan-d49-09-n400
 OpenBabel08281819543D

 29 29  0  0  0  0  0  0  0  0999 V2000
   -0.9117    2.0019   -1.7334 C   0  0  0  0  0  0  0  0  0  0  0  0
    0.3242    1.6841   -1.2263 C   0  0  0  0  0  0  0  0  0  0  0  0
    0.7419    1.2918   -0.1087 C   0  0  0  0  0  0  0  0  0  0  0  0
   -0.1548    1.1041    0.9468 C   0  0  0  0  0  0  0  0  0  0  0  0
   -1.4956    1.3889    0.5949 C   0  0  0  0  0  0  0  0  0  0  0  0
   -1.8578    1.8230   -0.6987 C   0  0  0  0  0  0  0  0  0  0  0  0
   -1.1719    2.3372   -2.7287 H   0  0  0  0  0  0  0  0  0  0  0  0
   -2.9014    2.0322   -0.9103 H   0  0  0  0  0  0  0  0  0  0  0  0
    0.0823    0.7774    1.9528 H   0  0  0  0  0  0  0  0  0  0  0  0
    2.9404   -2.0482   -0.2899 N   0  0  0  0  0  0  0  0  0  0  0  0
    3.6618   -1.2829    0.0806 N   0  0  0  0  0  0  0  0  0  0  0  0
    4.5449   -0.3301    0.5390 C   0  0  0  0  0  0  0  0  0  0  0  0
    5.8307   -0.7521    0.9401 C   0  0  0  0  0  0  0  0  0  0  0  0
    4.0968    1.0055    0.5764 C   0  0  0  0  0  0  0  0  0  0  0  0
    6.6943    0.2267    1.3992 C   0  0  0  0  0  0  0  0  0  0  0  0
    6.1200   -1.7959    0.8880 H   0  0  0  0  0  0  0  0  0  0  0  0
    4.9940    1.9551    1.0445 C   0  0  0  0  0  0  0  0  0  0  0  0
    3.0863    1.2562    0.2545 H   0  0  0  0  0  0  0  0  0  0  0  0
    6.2814    1.5700    1.4523 C   0  0  0  0  0  0  0  0  0  0  0  0
    7.6980   -0.0221    1.7257 H   0  0  0  0  0  0  0  0  0  0  0  0
    4.7004    2.9970    1.0970 H   0  0  0  0  0  0  0  0  0  0  0  0
   -2.5171    1.2042    1.6730 C   0  0  0  0  0  0  0  0  0  0  0  0
   -2.2550    0.8222    2.7942 O   0  0  0  0  0  0  0  0  0  0  0  0
   -3.7683    1.5057    1.2680 O   0  0  0  0  0  0  0  0  0  0  0  0
   -4.3534    1.3561    2.0300 H   0  0  0  0  0  0  0  0  0  0  0  0
    7.2854    2.5697    1.9681 C   0  0  0  0  0  0  0  0  0  0  0  0
    8.3970    2.2515    2.3214 O   0  0  0  0  0  0  0  0  0  0  0  0
    6.7942    3.8163    1.9817 O   0  0  0  0  0  0  0  0  0  0  0  0
    7.4854    4.4099    2.3246 H   0  0  0  0  0  0  0  0  0  0  0  0
  1  2  2  0  0  0  0
  1  6  1  0  0  0  0
  2  3  1  0  0  0  0
  3  4  2  0  0  0  0
  4  9  1  0  0  0  0
  5  4  1  0  0  0  0
  5 22  1  0  0  0  0
  6  5  2  0  0  0  0
  7  1  1  0  0  0  0
  8  6  1  0  0  0  0
 10 11  1  0  0  0  0
 11 12  1  0  0  0  0
 12 14  2  0  0  0  0
 12 13  1  0  0  0  0
 13 15  2  0  0  0  0
 14 17  1  0  0  0  0
 15 19  1  0  0  0  0
 15 20  1  0  0  0  0
 16 13  1  0  0  0  0
 17 21  1  0  0  0  0
 17 19  2  0  0  0  0
 18 14  1  0  0  0  0
 19 26  1  0  0  0  0
 22 23  2  0  0  0  0
 24 22  1  0  0  0  0
 24 25  1  0  0  0  0
 26 28  1  0  0  0  0
 26 27  2  0  0  0  0
 28 29  1  0  0  0  0
M  RAD  4   2   2   3   2  10   3  11   2
M  END
