Coordinates from ORCA-job 1g-Schema6-R11-K+-B3LYPG-6-31G_dp-scan-d49-09-n400
 OpenBabel08281819543D

 29 29  0  0  0  0  0  0  0  0999 V2000
   -0.8811    1.9505   -1.7166 C   0  0  0  0  0  0  0  0  0  0  0  0
    0.3369    1.6318   -1.1671 C   0  0  0  0  0  0  0  0  0  0  0  0
    0.7107    1.2345   -0.0360 C   0  0  0  0  0  0  0  0  0  0  0  0
   -0.2216    1.0420    0.9870 C   0  0  0  0  0  0  0  0  0  0  0  0
   -1.5488    1.3272    0.5868 C   0  0  0  0  0  0  0  0  0  0  0  0
   -1.8636    1.7663   -0.7176 C   0  0  0  0  0  0  0  0  0  0  0  0
   -1.1058    2.2900   -2.7191 H   0  0  0  0  0  0  0  0  0  0  0  0
   -2.8991    1.9753   -0.9661 H   0  0  0  0  0  0  0  0  0  0  0  0
   -0.0210    0.7115    1.9997 H   0  0  0  0  0  0  0  0  0  0  0  0
    2.7692   -1.8460   -0.1880 N   0  0  0  0  0  0  0  0  0  0  0  0
    3.5484   -1.1272    0.1571 N   0  0  0  0  0  0  0  0  0  0  0  0
    4.4952   -0.2225    0.5856 C   0  0  0  0  0  0  0  0  0  0  0  0
    5.7741   -0.7080    0.9324 C   0  0  0  0  0  0  0  0  0  0  0  0
    4.1137    1.1325    0.6482 C   0  0  0  0  0  0  0  0  0  0  0  0
    6.7010    0.2253    1.3622 C   0  0  0  0  0  0  0  0  0  0  0  0
    6.0109   -1.7639    0.8630 H   0  0  0  0  0  0  0  0  0  0  0  0
    5.0727    2.0352    1.0851 C   0  0  0  0  0  0  0  0  0  0  0  0
    3.1055    1.4291    0.3653 H   0  0  0  0  0  0  0  0  0  0  0  0
    6.3554    1.5862    1.4392 C   0  0  0  0  0  0  0  0  0  0  0  0
    7.7039   -0.0733    1.6468 H   0  0  0  0  0  0  0  0  0  0  0  0
    4.8316    3.0895    1.1547 H   0  0  0  0  0  0  0  0  0  0  0  0
   -2.6092    1.1374    1.6260 C   0  0  0  0  0  0  0  0  0  0  0  0
   -2.3876    0.7528    2.7549 O   0  0  0  0  0  0  0  0  0  0  0  0
   -3.8447    1.4390    1.1759 O   0  0  0  0  0  0  0  0  0  0  0  0
   -4.4578    1.2865    1.9151 H   0  0  0  0  0  0  0  0  0  0  0  0
    7.4258    2.5332    1.9195 C   0  0  0  0  0  0  0  0  0  0  0  0
    8.5341    2.1599    2.2261 O   0  0  0  0  0  0  0  0  0  0  0  0
    6.9959    3.8017    1.9593 O   0  0  0  0  0  0  0  0  0  0  0  0
    7.7278    4.3590    2.2777 H   0  0  0  0  0  0  0  0  0  0  0  0
  1  2  2  0  0  0  0
  1  6  1  0  0  0  0
  2  3  1  0  0  0  0
  3  4  2  0  0  0  0
  4  9  1  0  0  0  0
  5  4  1  0  0  0  0
  5 22  1  0  0  0  0
  6  5  2  0  0  0  0
  7  1  1  0  0  0  0
  8  6  1  0  0  0  0
 10 11  1  0  0  0  0
 11 12  1  0  0  0  0
 12 14  2  0  0  0  0
 12 13  1  0  0  0  0
 13 15  2  0  0  0  0
 14 17  1  0  0  0  0
 15 19  1  0  0  0  0
 15 20  1  0  0  0  0
 16 13  1  0  0  0  0
 17 21  1  0  0  0  0
 17 19  2  0  0  0  0
 18 14  1  0  0  0  0
 19 26  1  0  0  0  0
 22 23  2  0  0  0  0
 24 22  1  0  0  0  0
 24 25  1  0  0  0  0
 26 28  1  0  0  0  0
 26 27  2  0  0  0  0
 28 29  1  0  0  0  0
M  RAD  4   2   2   3   2  10   3  11   2
M  END
