Coordinates from ORCA-job 1g-Schema6-R11-K+-B3LYPG-6-31G_dp-scan-d49-09-n400
 OpenBabel08281819543D

 29 31  0  0  1  0  0  0  0  0999 V2000
    1.2472    2.1274    0.5500 C   0  0  0  0  0  0  0  0  0  0  0  0
    1.9706    1.0068    0.1832 C   0  0  0  0  0  0  0  0  0  0  0  0
    1.3313   -0.2620    0.1365 C   0  0  0  0  0  0  0  0  0  0  0  0
   -0.0386   -0.3457    0.4494 C   0  0  0  0  0  0  0  0  0  0  0  0
   -0.7469    0.7768    0.8821 C   0  0  0  0  0  0  0  0  0  0  0  0
   -0.1015    2.0134    0.9317 C   0  0  0  0  0  0  0  0  0  0  0  0
    1.7239    3.1020    0.5635 H   0  0  0  0  0  0  0  0  0  0  0  0
   -0.6431    2.8909    1.2667 H   0  0  0  0  0  0  0  0  0  0  0  0
   -0.5486   -1.3008    0.3659 H   0  0  0  0  0  0  0  0  0  0  0  0
    1.9068   -1.3885   -0.3450 N   0  0  0  0  0  0  0  0  0  0  0  0
    3.0953   -1.2723   -0.0660 N   0  0  0  0  0  0  0  0  0  0  0  0
    3.8933   -0.2687    0.2433 C   0  0  0  0  0  0  0  0  0  0  0  0
    4.9746   -0.4035    1.1374 C   0  0  0  0  0  0  0  0  0  0  0  0
    3.4419    1.0518   -0.2882 C   0  0  2  0  0  0  0  0  0  0  0  0
    5.6659    0.7298    1.4963 C   0  0  0  0  0  0  0  0  0  0  0  0
    5.2201   -1.3797    1.5395 H   0  0  0  0  0  0  0  0  0  0  0  0
    4.2993    2.2008    0.1171 C   0  0  0  0  0  0  0  0  0  0  0  0
    3.3992    1.0575   -1.3927 H   0  0  0  0  0  0  0  0  0  0  0  0
    5.3400    2.0336    0.9737 C   0  0  0  0  0  0  0  0  0  0  0  0
    6.4998    0.6735    2.1903 H   0  0  0  0  0  0  0  0  0  0  0  0
    4.1213    3.1658   -0.3460 H   0  0  0  0  0  0  0  0  0  0  0  0
   -2.1894    0.5919    1.2502 C   0  0  0  0  0  0  0  0  0  0  0  0
   -2.7549   -0.4759    1.1914 O   0  0  0  0  0  0  0  0  0  0  0  0
   -2.7629    1.7408    1.6482 O   0  0  0  0  0  0  0  0  0  0  0  0
   -3.6893    1.5447    1.8715 H   0  0  0  0  0  0  0  0  0  0  0  0
    6.2256    3.1691    1.4083 C   0  0  0  0  0  0  0  0  0  0  0  0
    7.1410    3.0203    2.1836 O   0  0  0  0  0  0  0  0  0  0  0  0
    5.8698    4.3347    0.8467 O   0  0  0  0  0  0  0  0  0  0  0  0
    6.4807    5.0206    1.1688 H   0  0  0  0  0  0  0  0  0  0  0  0
  1  7  1  0  0  0  0
  1  6  2  0  0  0  0
  2  1  1  0  0  0  0
  3  2  2  0  0  0  0
  3  4  1  0  0  0  0
  4  5  2  0  0  0  0
  5  6  1  0  0  0  0
  5 22  1  0  0  0  0
  6  8  1  0  0  0  0
  9  4  1  0  0  0  0
 10 11  1  0  0  0  0
 10  3  1  0  0  0  0
 11 12  1  0  0  0  0
 12 13  2  0  0  0  0
 13 15  1  0  0  0  0
 13 16  1  0  0  0  0
 14 18  1  6  0  0  0
 14 17  1  0  0  0  0
 14  2  1  0  0  0  0
 14 12  1  0  0  0  0
 15 20  1  0  0  0  0
 17 19  2  0  0  0  0
 19 26  1  0  0  0  0
 19 15  1  0  0  0  0
 21 17  1  0  0  0  0
 22 24  1  0  0  0  0
 23 22  2  0  0  0  0
 24 25  1  0  0  0  0
 26 27  2  0  0  0  0
 28 29  1  0  0  0  0
 28 26  1  0  0  0  0
M  RAD  3  10   2  11   2  15   2
M  END
