Coordinates from ORCA-job 1g-Schema6-R11-K+-B3LYPG-6-31G_dp-scan-d49-09-n400
 OpenBabel08281819543D

 29 30  0  0  0  0  0  0  0  0999 V2000
   -0.7480    1.5006   -1.7942 C   0  0  0  0  0  0  0  0  0  0  0  0
    0.2600    0.6070   -1.7090 C   0  0  0  0  0  0  0  0  0  0  0  0
    0.9871    0.0284   -0.7864 C   0  0  0  0  0  0  0  0  0  0  0  0
    0.4769    0.2699    0.5128 C   0  0  0  0  0  0  0  0  0  0  0  0
   -0.6315    1.1160    0.6399 C   0  0  0  0  0  0  0  0  0  0  0  0
   -1.2422    1.7098   -0.4801 C   0  0  0  0  0  0  0  0  0  0  0  0
   -1.2141    1.9122   -2.6814 H   0  0  0  0  0  0  0  0  0  0  0  0
   -2.1440    2.3036   -0.3624 H   0  0  0  0  0  0  0  0  0  0  0  0
    0.9558   -0.1430    1.3964 H   0  0  0  0  0  0  0  0  0  0  0  0
    2.1194   -1.0641   -1.0160 N   0  0  0  0  0  0  0  0  0  0  0  0
    3.2118   -1.0205   -0.5201 N   0  0  0  0  0  0  0  0  0  0  0  0
    3.9625   -0.0674    0.1833 C   0  0  0  0  0  0  0  0  0  0  0  0
    4.9432   -0.5782    1.0524 C   0  0  0  0  0  0  0  0  0  0  0  0
    3.8102    1.3166   -0.0329 C   0  0  0  0  0  0  0  0  0  0  0  0
    5.7292    0.3112    1.7704 C   0  0  0  0  0  0  0  0  0  0  0  0
    5.0561   -1.6518    1.1582 H   0  0  0  0  0  0  0  0  0  0  0  0
    4.6279    2.1897    0.6699 C   0  0  0  0  0  0  0  0  0  0  0  0
    3.0964    1.6926   -0.7562 H   0  0  0  0  0  0  0  0  0  0  0  0
    5.5760    1.6917    1.5798 C   0  0  0  0  0  0  0  0  0  0  0  0
    6.4810   -0.0387    2.4690 H   0  0  0  0  0  0  0  0  0  0  0  0
    4.5451    3.2593    0.5153 H   0  0  0  0  0  0  0  0  0  0  0  0
   -1.1235    1.3672    2.0388 C   0  0  0  0  0  0  0  0  0  0  0  0
   -0.5773    0.9139    3.0183 O   0  0  0  0  0  0  0  0  0  0  0  0
   -2.2166    2.1458    2.0593 O   0  0  0  0  0  0  0  0  0  0  0  0
   -2.4814    2.2638    2.9884 H   0  0  0  0  0  0  0  0  0  0  0  0
    6.4762    2.6013    2.3658 C   0  0  0  0  0  0  0  0  0  0  0  0
    7.2965    2.1986    3.1589 O   0  0  0  0  0  0  0  0  0  0  0  0
    6.2605    3.9003    2.0885 O   0  0  0  0  0  0  0  0  0  0  0  0
    6.8793    4.4195    2.6305 H   0  0  0  0  0  0  0  0  0  0  0  0
  1  2  2  0  0  0  0
  1  6  1  0  0  0  0
  2  3  1  0  0  0  0
  3  4  2  0  0  0  0
  4  5  1  0  0  0  0
  4  9  1  0  0  0  0
  5 22  1  0  0  0  0
  6  8  1  0  0  0  0
  6  5  2  0  0  0  0
  7  1  1  0  0  0  0
 10  3  1  0  0  0  0
 10 11  2  0  0  0  0
 11 12  1  0  0  0  0
 12 13  1  0  0  0  0
 13 16  1  0  0  0  0
 13 15  2  0  0  0  0
 14 12  2  0  0  0  0
 14 17  1  0  0  0  0
 15 20  1  0  0  0  0
 17 19  2  0  0  0  0
 18 14  1  0  0  0  0
 19 15  1  0  0  0  0
 19 26  1  0  0  0  0
 21 17  1  0  0  0  0
 22 24  1  0  0  0  0
 22 23  2  0  0  0  0
 24 25  1  0  0  0  0
 26 27  2  0  0  0  0
 28 26  1  0  0  0  0
 28 29  1  0  0  0  0
M  RAD  1   2   2
M  END
