Coordinates from ORCA-job 1g-Schema6-R11-K+-B3LYPG-6-31G_dp-scan-d49-09-n400
 OpenBabel08281819543D

 29 29  0  0  0  0  0  0  0  0999 V2000
   -0.9374    1.9899   -1.7479 C   0  0  0  0  0  0  0  0  0  0  0  0
    0.3096    1.7005   -1.2517 C   0  0  0  0  0  0  0  0  0  0  0  0
    0.7481    1.3193   -0.1381 C   0  0  0  0  0  0  0  0  0  0  0  0
   -0.1347    1.1158    0.9265 C   0  0  0  0  0  0  0  0  0  0  0  0
   -1.4848    1.3706    0.5875 C   0  0  0  0  0  0  0  0  0  0  0  0
   -1.8691    1.7936   -0.7033 C   0  0  0  0  0  0  0  0  0  0  0  0
   -1.2143    2.3176   -2.7412 H   0  0  0  0  0  0  0  0  0  0  0  0
   -2.9190    1.9804   -0.9048 H   0  0  0  0  0  0  0  0  0  0  0  0
    0.1190    0.7974    1.9312 H   0  0  0  0  0  0  0  0  0  0  0  0
    2.8654   -1.9634   -0.2917 N   0  0  0  0  0  0  0  0  0  0  0  0
    3.6055   -1.2175    0.0812 N   0  0  0  0  0  0  0  0  0  0  0  0
    4.5101   -0.2864    0.5419 C   0  0  0  0  0  0  0  0  0  0  0  0
    5.7750   -0.7426    0.9713 C   0  0  0  0  0  0  0  0  0  0  0  0
    4.1037    1.0629    0.5533 C   0  0  0  0  0  0  0  0  0  0  0  0
    6.6608    0.2151    1.4328 C   0  0  0  0  0  0  0  0  0  0  0  0
    6.0322   -1.7955    0.9385 H   0  0  0  0  0  0  0  0  0  0  0  0
    5.0219    1.9903    1.0250 C   0  0  0  0  0  0  0  0  0  0  0  0
    3.1071    1.3385    0.2107 H   0  0  0  0  0  0  0  0  0  0  0  0
    6.2893    1.5710    1.4609 C   0  0  0  0  0  0  0  0  0  0  0  0
    7.6505   -0.0602    1.7801 H   0  0  0  0  0  0  0  0  0  0  0  0
    4.7603    3.0415    1.0585 H   0  0  0  0  0  0  0  0  0  0  0  0
   -2.4912    1.1662    1.6763 C   0  0  0  0  0  0  0  0  0  0  0  0
   -2.2097    0.7894    2.7946 O   0  0  0  0  0  0  0  0  0  0  0  0
   -3.7521    1.4430    1.2844 O   0  0  0  0  0  0  0  0  0  0  0  0
   -4.3264    1.2821    2.0524 H   0  0  0  0  0  0  0  0  0  0  0  0
    7.3148    2.5462    1.9814 C   0  0  0  0  0  0  0  0  0  0  0  0
    8.4100    2.1987    2.3578 O   0  0  0  0  0  0  0  0  0  0  0  0
    6.8623    3.8074    1.9711 O   0  0  0  0  0  0  0  0  0  0  0  0
    7.5657    4.3837    2.3185 H   0  0  0  0  0  0  0  0  0  0  0  0
  1  2  2  0  0  0  0
  1  6  1  0  0  0  0
  2  3  1  0  0  0  0
  3  4  2  0  0  0  0
  4  9  1  0  0  0  0
  5  4  1  0  0  0  0
  5 22  1  0  0  0  0
  6  5  2  0  0  0  0
  7  1  1  0  0  0  0
  8  6  1  0  0  0  0
 10 11  1  0  0  0  0
 11 12  1  0  0  0  0
 12 14  2  0  0  0  0
 12 13  1  0  0  0  0
 13 15  2  0  0  0  0
 14 17  1  0  0  0  0
 15 19  1  0  0  0  0
 15 20  1  0  0  0  0
 16 13  1  0  0  0  0
 17 21  1  0  0  0  0
 17 19  2  0  0  0  0
 18 14  1  0  0  0  0
 19 26  1  0  0  0  0
 22 23  2  0  0  0  0
 24 22  1  0  0  0  0
 24 25  1  0  0  0  0
 26 27  2  0  0  0  0
 28 26  1  0  0  0  0
 28 29  1  0  0  0  0
M  RAD  4   2   2   3   2  10   3  11   2
M  END
