Coordinates from ORCA-job 1g-Schema6-R11-K+-B3LYPG-6-31G_dp-scan-d49-09-n400
 OpenBabel08281819543D

 29 29  0  0  0  0  0  0  0  0999 V2000
   -1.0996    1.2745   -1.9655 C   0  0  0  0  0  0  0  0  0  0  0  0
    0.0487    0.6042   -1.6534 C   0  0  0  0  0  0  0  0  0  0  0  0
    0.6285    0.2158   -0.6007 C   0  0  0  0  0  0  0  0  0  0  0  0
   -0.0014    0.4799    0.6233 C   0  0  0  0  0  0  0  0  0  0  0  0
   -1.2236    1.1813    0.5074 C   0  0  0  0  0  0  0  0  0  0  0  0
   -1.7549    1.5606   -0.7427 C   0  0  0  0  0  0  0  0  0  0  0  0
   -1.4871    1.5558   -2.9357 H   0  0  0  0  0  0  0  0  0  0  0  0
   -2.7017    2.0894   -0.7785 H   0  0  0  0  0  0  0  0  0  0  0  0
    0.3622    0.1912    1.6041 H   0  0  0  0  0  0  0  0  0  0  0  0
    2.4209   -1.3324   -0.5494 N   0  0  0  0  0  0  0  0  0  0  0  0
    3.3148   -0.8240   -0.0924 N   0  0  0  0  0  0  0  0  0  0  0  0
    4.2655    0.0066    0.4675 C   0  0  0  0  0  0  0  0  0  0  0  0
    5.5256   -0.5351    0.7826 C   0  0  0  0  0  0  0  0  0  0  0  0
    3.9153    1.3528    0.6894 C   0  0  0  0  0  0  0  0  0  0  0  0
    6.4639    0.3172    1.3434 C   0  0  0  0  0  0  0  0  0  0  0  0
    5.7432   -1.5794    0.5894 H   0  0  0  0  0  0  0  0  0  0  0  0
    4.8779    2.1785    1.2522 C   0  0  0  0  0  0  0  0  0  0  0  0
    2.9275    1.7134    0.4260 H   0  0  0  0  0  0  0  0  0  0  0  0
    6.1441    1.6640    1.5774 C   0  0  0  0  0  0  0  0  0  0  0  0
    7.4535   -0.0365    1.6101 H   0  0  0  0  0  0  0  0  0  0  0  0
    4.6551    3.2213    1.4440 H   0  0  0  0  0  0  0  0  0  0  0  0
   -1.9262    1.5029    1.7911 C   0  0  0  0  0  0  0  0  0  0  0  0
   -1.4767    1.2358    2.8849 O   0  0  0  0  0  0  0  0  0  0  0  0
   -3.1052    2.1252    1.5986 O   0  0  0  0  0  0  0  0  0  0  0  0
   -3.4873    2.2928    2.4772 H   0  0  0  0  0  0  0  0  0  0  0  0
    7.2180    2.5242    2.1903 C   0  0  0  0  0  0  0  0  0  0  0  0
    8.3139    2.0994    2.4735 O   0  0  0  0  0  0  0  0  0  0  0  0
    6.8101    3.7894    2.3734 O   0  0  0  0  0  0  0  0  0  0  0  0
    7.5474    4.2863    2.7696 H   0  0  0  0  0  0  0  0  0  0  0  0
  1  2  2  0  0  0  0
  1  6  1  0  0  0  0
  2  3  1  0  0  0  0
  3  4  2  0  0  0  0
  4  9  1  0  0  0  0
  5  4  1  0  0  0  0
  5 22  1  0  0  0  0
  6  5  2  0  0  0  0
  7  1  1  0  0  0  0
  8  6  1  0  0  0  0
 10 11  1  0  0  0  0
 11 12  1  0  0  0  0
 12 14  2  0  0  0  0
 12 13  1  0  0  0  0
 13 15  2  0  0  0  0
 14 17  1  0  0  0  0
 15 19  1  0  0  0  0
 15 20  1  0  0  0  0
 16 13  1  0  0  0  0
 17 21  1  0  0  0  0
 17 19  2  0  0  0  0
 18 14  1  0  0  0  0
 19 26  1  0  0  0  0
 22 23  2  0  0  0  0
 24 22  1  0  0  0  0
 24 25  1  0  0  0  0
 26 28  1  0  0  0  0
 26 27  2  0  0  0  0
 28 29  1  0  0  0  0
M  RAD  4   2   2   3   2  10   3  11   2
M  END
