Coordinates from ORCA-job 1g-Schema6-R11-K+-B3LYPG-6-31G_dp-scan-d49-09-n400
 OpenBabel08281819543D

 29 29  0  0  0  0  0  0  0  0999 V2000
   -0.9043    2.0039   -1.7353 C   0  0  0  0  0  0  0  0  0  0  0  0
    0.3272    1.6568   -1.2371 C   0  0  0  0  0  0  0  0  0  0  0  0
    0.7470    1.2684   -0.1190 C   0  0  0  0  0  0  0  0  0  0  0  0
   -0.1439    1.1202    0.9480 C   0  0  0  0  0  0  0  0  0  0  0  0
   -1.4797    1.4397    0.6072 C   0  0  0  0  0  0  0  0  0  0  0  0
   -1.8437    1.8668   -0.6883 C   0  0  0  0  0  0  0  0  0  0  0  0
   -1.1656    2.3326   -2.7325 H   0  0  0  0  0  0  0  0  0  0  0  0
   -2.8831    2.1029   -0.8917 H   0  0  0  0  0  0  0  0  0  0  0  0
    0.0950    0.7992    1.9554 H   0  0  0  0  0  0  0  0  0  0  0  0
    3.1149   -2.2190   -0.3577 N   0  0  0  0  0  0  0  0  0  0  0  0
    3.7862   -1.4164    0.0277 N   0  0  0  0  0  0  0  0  0  0  0  0
    4.6102   -0.4210    0.5047 C   0  0  0  0  0  0  0  0  0  0  0  0
    5.9214   -0.7731    0.8915 C   0  0  0  0  0  0  0  0  0  0  0  0
    4.0820    0.8838    0.5742 C   0  0  0  0  0  0  0  0  0  0  0  0
    6.7265    0.2455    1.3696 C   0  0  0  0  0  0  0  0  0  0  0  0
    6.2728   -1.7961    0.8147 H   0  0  0  0  0  0  0  0  0  0  0  0
    4.9232    1.8751    1.0597 C   0  0  0  0  0  0  0  0  0  0  0  0
    3.0568    1.0857    0.2623 H   0  0  0  0  0  0  0  0  0  0  0  0
    6.2334    1.5599    1.4540 C   0  0  0  0  0  0  0  0  0  0  0  0
    7.7450    0.0506    1.6869 H   0  0  0  0  0  0  0  0  0  0  0  0
    4.5673    2.8958    1.1365 H   0  0  0  0  0  0  0  0  0  0  0  0
   -2.4936    1.3004    1.6988 C   0  0  0  0  0  0  0  0  0  0  0  0
   -2.2299    0.9298    2.8235 O   0  0  0  0  0  0  0  0  0  0  0  0
   -3.7407    1.6298    1.3024 O   0  0  0  0  0  0  0  0  0  0  0  0
   -4.3209    1.5087    2.0732 H   0  0  0  0  0  0  0  0  0  0  0  0
    7.1781    2.6069    1.9880 C   0  0  0  0  0  0  0  0  0  0  0  0
    8.3075    2.3481    2.3329 O   0  0  0  0  0  0  0  0  0  0  0  0
    6.6138    3.8217    2.0272 O   0  0  0  0  0  0  0  0  0  0  0  0
    7.2695    4.4485    2.3803 H   0  0  0  0  0  0  0  0  0  0  0  0
  1  2  2  0  0  0  0
  1  6  1  0  0  0  0
  2  3  1  0  0  0  0
  3  4  2  0  0  0  0
  4  9  1  0  0  0  0
  5  4  1  0  0  0  0
  5 22  1  0  0  0  0
  6  5  2  0  0  0  0
  7  1  1  0  0  0  0
  8  6  1  0  0  0  0
 10 11  1  0  0  0  0
 11 12  1  0  0  0  0
 12 14  2  0  0  0  0
 12 13  1  0  0  0  0
 13 15  2  0  0  0  0
 14 17  1  0  0  0  0
 15 19  1  0  0  0  0
 15 20  1  0  0  0  0
 16 13  1  0  0  0  0
 17 21  1  0  0  0  0
 17 19  2  0  0  0  0
 18 14  1  0  0  0  0
 19 26  1  0  0  0  0
 22 23  2  0  0  0  0
 24 22  1  0  0  0  0
 24 25  1  0  0  0  0
 26 28  1  0  0  0  0
 26 27  2  0  0  0  0
 28 29  1  0  0  0  0
M  RAD  4   2   2   3   2  10   3  11   2
M  END
