Coordinates from ORCA-job 1g-Schema6-R11-K+-B3LYPG-6-31G_dp-scan-d49-09-n400
 OpenBabel08281819543D

 29 29  0  0  0  0  0  0  0  0999 V2000
   -1.0145    1.4915   -1.8667 C   0  0  0  0  0  0  0  0  0  0  0  0
    0.1256    0.8946   -1.3991 C   0  0  0  0  0  0  0  0  0  0  0  0
    0.5249    0.4640   -0.2846 C   0  0  0  0  0  0  0  0  0  0  0  0
   -0.3279    0.5584    0.8217 C   0  0  0  0  0  0  0  0  0  0  0  0
   -1.5722    1.1622    0.5262 C   0  0  0  0  0  0  0  0  0  0  0  0
   -1.9024    1.6092   -0.7711 C   0  0  0  0  0  0  0  0  0  0  0  0
   -1.2491    1.8280   -2.8678 H   0  0  0  0  0  0  0  0  0  0  0  0
   -2.8740    2.0607   -0.9425 H   0  0  0  0  0  0  0  0  0  0  0  0
   -0.1179    0.2182    1.8295 H   0  0  0  0  0  0  0  0  0  0  0  0
    2.4799   -1.2888   -0.2374 N   0  0  0  0  0  0  0  0  0  0  0  0
    3.4135   -0.7886    0.1304 N   0  0  0  0  0  0  0  0  0  0  0  0
    4.4347    0.0189    0.5892 C   0  0  0  0  0  0  0  0  0  0  0  0
    5.7025   -0.5486    0.8140 C   0  0  0  0  0  0  0  0  0  0  0  0
    4.1288    1.3770    0.8046 C   0  0  0  0  0  0  0  0  0  0  0  0
    6.6998    0.2957    1.2759 C   0  0  0  0  0  0  0  0  0  0  0  0
    5.8817   -1.6019    0.6297 H   0  0  0  0  0  0  0  0  0  0  0  0
    5.1510    2.1922    1.2683 C   0  0  0  0  0  0  0  0  0  0  0  0
    3.1292    1.7508    0.6098 H   0  0  0  0  0  0  0  0  0  0  0  0
    6.4280    1.6548    1.5021 C   0  0  0  0  0  0  0  0  0  0  0  0
    7.7005   -0.0736    1.4709 H   0  0  0  0  0  0  0  0  0  0  0  0
    4.9672    3.2440    1.4524 H   0  0  0  0  0  0  0  0  0  0  0  0
   -2.5285    1.3028    1.6705 C   0  0  0  0  0  0  0  0  0  0  0  0
   -2.2764    0.9556    2.8044 O   0  0  0  0  0  0  0  0  0  0  0  0
   -3.7008    1.8596    1.3054 O   0  0  0  0  0  0  0  0  0  0  0  0
   -4.2534    1.9074    2.1042 H   0  0  0  0  0  0  0  0  0  0  0  0
    7.5674    2.5032    2.0045 C   0  0  0  0  0  0  0  0  0  0  0  0
    8.6725    2.0573    2.2084 O   0  0  0  0  0  0  0  0  0  0  0  0
    7.2030    3.7807    2.1897 O   0  0  0  0  0  0  0  0  0  0  0  0
    7.9794    4.2699    2.5144 H   0  0  0  0  0  0  0  0  0  0  0  0
  1  2  2  0  0  0  0
  1  6  1  0  0  0  0
  2  3  1  0  0  0  0
  3  4  2  0  0  0  0
  4  9  1  0  0  0  0
  5  4  1  0  0  0  0
  5 22  1  0  0  0  0
  6  5  2  0  0  0  0
  7  1  1  0  0  0  0
  8  6  1  0  0  0  0
 10 11  1  0  0  0  0
 11 12  1  0  0  0  0
 12 14  2  0  0  0  0
 12 13  1  0  0  0  0
 13 15  2  0  0  0  0
 14 17  1  0  0  0  0
 15 20  1  0  0  0  0
 15 19  1  0  0  0  0
 16 13  1  0  0  0  0
 17 21  1  0  0  0  0
 17 19  2  0  0  0  0
 18 14  1  0  0  0  0
 19 26  1  0  0  0  0
 22 23  2  0  0  0  0
 24 22  1  0  0  0  0
 24 25  1  0  0  0  0
 26 28  1  0  0  0  0
 26 27  2  0  0  0  0
 28 29  1  0  0  0  0
M  RAD  4   2   2   3   2  10   3  11   2
M  END
