Coordinates from ORCA-job 1g-Schema6-R11-K+-B3LYPG-6-31G_dp-scan-d49-09-n400
 OpenBabel08281819543D

 29 29  0  0  0  0  0  0  0  0999 V2000
   -0.9703    1.4707   -1.8901 C   0  0  0  0  0  0  0  0  0  0  0  0
    0.1648    0.8327   -1.4742 C   0  0  0  0  0  0  0  0  0  0  0  0
    0.6130    0.3811   -0.3844 C   0  0  0  0  0  0  0  0  0  0  0  0
   -0.1890    0.5065    0.7587 C   0  0  0  0  0  0  0  0  0  0  0  0
   -1.4230    1.1557    0.5265 C   0  0  0  0  0  0  0  0  0  0  0  0
   -1.8001    1.6174   -0.7522 C   0  0  0  0  0  0  0  0  0  0  0  0
   -1.2388    1.8180   -2.8789 H   0  0  0  0  0  0  0  0  0  0  0  0
   -2.7620    2.1038   -0.8773 H   0  0  0  0  0  0  0  0  0  0  0  0
    0.0560    0.1533    1.7544 H   0  0  0  0  0  0  0  0  0  0  0  0
    2.3987   -1.2889   -0.3079 N   0  0  0  0  0  0  0  0  0  0  0  0
    3.3347   -0.8045    0.0827 N   0  0  0  0  0  0  0  0  0  0  0  0
    4.3380    0.0147    0.5619 C   0  0  0  0  0  0  0  0  0  0  0  0
    5.5986   -0.5488    0.8321 C   0  0  0  0  0  0  0  0  0  0  0  0
    4.0297    1.3759    0.7515 C   0  0  0  0  0  0  0  0  0  0  0  0
    6.5839    0.2993    1.3129 C   0  0  0  0  0  0  0  0  0  0  0  0
    5.7813   -1.6045    0.6662 H   0  0  0  0  0  0  0  0  0  0  0  0
    5.0389    2.1961    1.2350 C   0  0  0  0  0  0  0  0  0  0  0  0
    3.0377    1.7499    0.5234 H   0  0  0  0  0  0  0  0  0  0  0  0
    6.3077    1.6611    1.5139 C   0  0  0  0  0  0  0  0  0  0  0  0
    7.5776   -0.0692    1.5419 H   0  0  0  0  0  0  0  0  0  0  0  0
    4.8509    3.2504    1.4003 H   0  0  0  0  0  0  0  0  0  0  0  0
   -2.3157    1.3282    1.7177 C   0  0  0  0  0  0  0  0  0  0  0  0
   -2.0162    0.9733    2.8373 O   0  0  0  0  0  0  0  0  0  0  0  0
   -3.4849    1.9233    1.4101 O   0  0  0  0  0  0  0  0  0  0  0  0
   -3.9963    1.9912    2.2346 H   0  0  0  0  0  0  0  0  0  0  0  0
    7.4320    2.5149    2.0396 C   0  0  0  0  0  0  0  0  0  0  0  0
    8.5304    2.0720    2.2826 O   0  0  0  0  0  0  0  0  0  0  0  0
    7.0637    3.7952    2.1986 O   0  0  0  0  0  0  0  0  0  0  0  0
    7.8312    4.2866    2.5403 H   0  0  0  0  0  0  0  0  0  0  0  0
  1  2  2  0  0  0  0
  1  6  1  0  0  0  0
  2  3  1  0  0  0  0
  3  4  2  0  0  0  0
  4  9  1  0  0  0  0
  5  4  1  0  0  0  0
  5 22  1  0  0  0  0
  6  5  2  0  0  0  0
  7  1  1  0  0  0  0
  8  6  1  0  0  0  0
 10 11  1  0  0  0  0
 11 12  1  0  0  0  0
 12 14  2  0  0  0  0
 12 13  1  0  0  0  0
 13 15  2  0  0  0  0
 14 17  1  0  0  0  0
 15 19  1  0  0  0  0
 15 20  1  0  0  0  0
 16 13  1  0  0  0  0
 17 21  1  0  0  0  0
 17 19  2  0  0  0  0
 18 14  1  0  0  0  0
 19 26  1  0  0  0  0
 22 23  2  0  0  0  0
 24 22  1  0  0  0  0
 24 25  1  0  0  0  0
 26 28  1  0  0  0  0
 26 27  2  0  0  0  0
 28 29  1  0  0  0  0
M  RAD  4   2   2   3   2  10   3  11   2
M  END
