Coordinates from ORCA-job 1g-Schema6-R11-K+-B3LYPG-6-31G_dp-scan-d49-09-n400
 OpenBabel08281819543D

 29 29  0  0  0  0  0  0  0  0999 V2000
   -0.7576    2.1322   -1.6358 C   0  0  0  0  0  0  0  0  0  0  0  0
    0.4127    1.6061   -1.1415 C   0  0  0  0  0  0  0  0  0  0  0  0
    0.7480    1.1424   -0.0246 C   0  0  0  0  0  0  0  0  0  0  0  0
   -0.1595    1.0899    1.0339 C   0  0  0  0  0  0  0  0  0  0  0  0
   -1.4334    1.6016    0.6880 C   0  0  0  0  0  0  0  0  0  0  0  0
   -1.7187    2.1039   -0.6005 C   0  0  0  0  0  0  0  0  0  0  0  0
   -0.9619    2.5149   -2.6272 H   0  0  0  0  0  0  0  0  0  0  0  0
   -2.7136    2.4842   -0.8069 H   0  0  0  0  0  0  0  0  0  0  0  0
    0.0211    0.7131    2.0338 H   0  0  0  0  0  0  0  0  0  0  0  0
    3.8149   -2.8080   -0.5026 N   0  0  0  0  0  0  0  0  0  0  0  0
    4.2899   -1.8841   -0.0964 N   0  0  0  0  0  0  0  0  0  0  0  0
    4.8740   -0.7425    0.4053 C   0  0  0  0  0  0  0  0  0  0  0  0
    6.2285   -0.8145    0.7986 C   0  0  0  0  0  0  0  0  0  0  0  0
    4.0812    0.4195    0.4931 C   0  0  0  0  0  0  0  0  0  0  0  0
    6.7976    0.3419    1.3015 C   0  0  0  0  0  0  0  0  0  0  0  0
    6.7892   -1.7383    0.7075 H   0  0  0  0  0  0  0  0  0  0  0  0
    4.6916    1.5567    1.0033 C   0  0  0  0  0  0  0  0  0  0  0  0
    3.0375    0.4319    0.1802 H   0  0  0  0  0  0  0  0  0  0  0  0
    6.0369    1.5201    1.4039 C   0  0  0  0  0  0  0  0  0  0  0  0
    7.8326    0.3615    1.6243 H   0  0  0  0  0  0  0  0  0  0  0  0
    4.1236    2.4755    1.0926 H   0  0  0  0  0  0  0  0  0  0  0  0
   -2.4693    1.5823    1.7672 C   0  0  0  0  0  0  0  0  0  0  0  0
   -2.2718    1.1619    2.8879 O   0  0  0  0  0  0  0  0  0  0  0  0
   -3.6563    2.0839    1.3651 O   0  0  0  0  0  0  0  0  0  0  0  0
   -4.2563    2.0281    2.1282 H   0  0  0  0  0  0  0  0  0  0  0  0
    6.7363    2.7335    1.9626 C   0  0  0  0  0  0  0  0  0  0  0  0
    7.8938    2.7125    2.3103 O   0  0  0  0  0  0  0  0  0  0  0  0
    5.9273    3.8001    2.0186 O   0  0  0  0  0  0  0  0  0  0  0  0
    6.4341    4.5453    2.3866 H   0  0  0  0  0  0  0  0  0  0  0  0
  1  2  2  0  0  0  0
  1  6  1  0  0  0  0
  2  3  1  0  0  0  0
  3  4  2  0  0  0  0
  4  9  1  0  0  0  0
  5  4  1  0  0  0  0
  5 22  1  0  0  0  0
  6  5  2  0  0  0  0
  7  1  1  0  0  0  0
  8  6  1  0  0  0  0
 10 11  1  0  0  0  0
 11 12  1  0  0  0  0
 12 14  2  0  0  0  0
 12 13  1  0  0  0  0
 13 15  2  0  0  0  0
 14 17  1  0  0  0  0
 15 19  1  0  0  0  0
 15 20  1  0  0  0  0
 16 13  1  0  0  0  0
 17 21  1  0  0  0  0
 17 19  2  0  0  0  0
 18 14  1  0  0  0  0
 19 26  1  0  0  0  0
 22 23  2  0  0  0  0
 24 22  1  0  0  0  0
 24 25  1  0  0  0  0
 26 28  1  0  0  0  0
 26 27  2  0  0  0  0
 28 29  1  0  0  0  0
M  RAD  4   2   2   3   2  10   3  11   2
M  END
