Coordinates from ORCA-job 1g-Schema6-R11-K+-B3LYPG-6-31G_dp-scan-d49-09-n400
 OpenBabel08281819543D

 29 29  0  0  0  0  0  0  0  0999 V2000
   -1.1062    1.2775   -1.9659 C   0  0  0  0  0  0  0  0  0  0  0  0
    0.0416    0.6067   -1.6533 C   0  0  0  0  0  0  0  0  0  0  0  0
    0.6203    0.2177   -0.6003 C   0  0  0  0  0  0  0  0  0  0  0  0
   -0.0102    0.4815    0.6234 C   0  0  0  0  0  0  0  0  0  0  0  0
   -1.2322    1.1832    0.5069 C   0  0  0  0  0  0  0  0  0  0  0  0
   -1.7624    1.5632   -0.7434 C   0  0  0  0  0  0  0  0  0  0  0  0
   -1.4931    1.5589   -2.9362 H   0  0  0  0  0  0  0  0  0  0  0  0
   -2.7092    2.0919   -0.7797 H   0  0  0  0  0  0  0  0  0  0  0  0
    0.3527    0.1926    1.6044 H   0  0  0  0  0  0  0  0  0  0  0  0
    2.4280   -1.3334   -0.5473 N   0  0  0  0  0  0  0  0  0  0  0  0
    3.3252   -0.8301   -0.0911 N   0  0  0  0  0  0  0  0  0  0  0  0
    4.2749    0.0018    0.4682 C   0  0  0  0  0  0  0  0  0  0  0  0
    5.5363   -0.5370    0.7829 C   0  0  0  0  0  0  0  0  0  0  0  0
    3.9219    1.3475    0.6901 C   0  0  0  0  0  0  0  0  0  0  0  0
    6.4732    0.3172    1.3432 C   0  0  0  0  0  0  0  0  0  0  0  0
    5.7559   -1.5809    0.5896 H   0  0  0  0  0  0  0  0  0  0  0  0
    4.8832    2.1750    1.2526 C   0  0  0  0  0  0  0  0  0  0  0  0
    2.9335    1.7073    0.4276 H   0  0  0  0  0  0  0  0  0  0  0  0
    6.1507    1.6633    1.5773 C   0  0  0  0  0  0  0  0  0  0  0  0
    7.4636   -0.0345    1.6095 H   0  0  0  0  0  0  0  0  0  0  0  0
    4.6583    3.2174    1.4444 H   0  0  0  0  0  0  0  0  0  0  0  0
   -1.9358    1.5046    1.7902 C   0  0  0  0  0  0  0  0  0  0  0  0
   -1.4876    1.2363    2.8842 O   0  0  0  0  0  0  0  0  0  0  0  0
   -3.1148    2.1267    1.5970 O   0  0  0  0  0  0  0  0  0  0  0  0
   -3.4977    2.2935    2.4753 H   0  0  0  0  0  0  0  0  0  0  0  0
    7.2229    2.5259    2.1896 C   0  0  0  0  0  0  0  0  0  0  0  0
    8.3196    2.1032    2.4733 O   0  0  0  0  0  0  0  0  0  0  0  0
    6.8120    3.7899    2.3740 O   0  0  0  0  0  0  0  0  0  0  0  0
    7.5479    4.2882    2.7707 H   0  0  0  0  0  0  0  0  0  0  0  0
  1  2  2  0  0  0  0
  1  6  1  0  0  0  0
  2  3  1  0  0  0  0
  3  4  2  0  0  0  0
  4  9  1  0  0  0  0
  5  4  1  0  0  0  0
  5 22  1  0  0  0  0
  6  5  2  0  0  0  0
  7  1  1  0  0  0  0
  8  6  1  0  0  0  0
 10 11  1  0  0  0  0
 11 12  1  0  0  0  0
 12 14  2  0  0  0  0
 12 13  1  0  0  0  0
 13 15  2  0  0  0  0
 14 17  1  0  0  0  0
 15 19  1  0  0  0  0
 15 20  1  0  0  0  0
 16 13  1  0  0  0  0
 17 21  1  0  0  0  0
 17 19  2  0  0  0  0
 18 14  1  0  0  0  0
 19 26  1  0  0  0  0
 22 23  2  0  0  0  0
 24 22  1  0  0  0  0
 24 25  1  0  0  0  0
 26 28  1  0  0  0  0
 26 27  2  0  0  0  0
 28 29  1  0  0  0  0
M  RAD  4   2   2   3   2  10   3  11   2
M  END
