Coordinates from ORCA-job 1g-Schema6-R11-K+-B3LYPG-6-31G_dp-scan-d49-09-n400
 OpenBabel08281819543D

 29 31  0  0  1  0  0  0  0  0999 V2000
    1.2509    2.1406    0.4389 C   0  0  0  0  0  0  0  0  0  0  0  0
    1.9768    1.0329    0.0530 C   0  0  0  0  0  0  0  0  0  0  0  0
    1.3599   -0.2633    0.0451 C   0  0  0  0  0  0  0  0  0  0  0  0
    0.0018   -0.3436    0.4246 C   0  0  0  0  0  0  0  0  0  0  0  0
   -0.6994    0.7687    0.8950 C   0  0  0  0  0  0  0  0  0  0  0  0
   -0.0770    2.0157    0.8902 C   0  0  0  0  0  0  0  0  0  0  0  0
    1.7206    3.1186    0.4316 H   0  0  0  0  0  0  0  0  0  0  0  0
   -0.6131    2.8903    1.2412 H   0  0  0  0  0  0  0  0  0  0  0  0
   -0.5125   -1.2982    0.3568 H   0  0  0  0  0  0  0  0  0  0  0  0
    1.8794   -1.3732   -0.5205 N   0  0  0  0  0  0  0  0  0  0  0  0
    2.9772   -1.1395   -0.0597 N   0  0  0  0  0  0  0  0  0  0  0  0
    3.8719   -0.2625    0.2188 C   0  0  0  0  0  0  0  0  0  0  0  0
    4.8887   -0.3940    1.2101 C   0  0  0  0  0  0  0  0  0  0  0  0
    3.4598    1.0671   -0.3752 C   0  0  2  0  0  0  0  0  0  0  0  0
    5.5724    0.7283    1.5741 C   0  0  0  0  0  0  0  0  0  0  0  0
    5.0793   -1.3626    1.6569 H   0  0  0  0  0  0  0  0  0  0  0  0
    4.3268    2.2016    0.0685 C   0  0  0  0  0  0  0  0  0  0  0  0
    3.4717    1.0545   -1.4787 H   0  0  0  0  0  0  0  0  0  0  0  0
    5.3019    2.0296    0.9913 C   0  0  0  0  0  0  0  0  0  0  0  0
    6.3638    0.6793    2.3158 H   0  0  0  0  0  0  0  0  0  0  0  0
    4.2052    3.1574   -0.4308 H   0  0  0  0  0  0  0  0  0  0  0  0
   -2.1164    0.5599    1.3414 C   0  0  0  0  0  0  0  0  0  0  0  0
   -2.6622   -0.5196    1.3228 O   0  0  0  0  0  0  0  0  0  0  0  0
   -2.6891    1.7008    1.7615 O   0  0  0  0  0  0  0  0  0  0  0  0
   -3.5987    1.4903    2.0354 H   0  0  0  0  0  0  0  0  0  0  0  0
    6.1868    3.1555    1.4465 C   0  0  0  0  0  0  0  0  0  0  0  0
    7.0558    3.0090    2.2749 O   0  0  0  0  0  0  0  0  0  0  0  0
    5.8899    4.3178    0.8425 O   0  0  0  0  0  0  0  0  0  0  0  0
    6.5002    4.9938    1.1852 H   0  0  0  0  0  0  0  0  0  0  0  0
  1  6  2  0  0  0  0
  2  1  1  0  0  0  0
  3  2  2  0  0  0  0
  3  4  1  0  0  0  0
  4  5  2  0  0  0  0
  5 22  1  0  0  0  0
  6  5  1  0  0  0  0
  6  8  1  0  0  0  0
  7  1  1  0  0  0  0
  9  4  1  0  0  0  0
 10 11  1  0  0  0  0
 10  3  1  0  0  0  0
 11 12  1  0  0  0  0
 12 13  2  0  0  0  0
 13 15  1  0  0  0  0
 13 16  1  0  0  0  0
 14 18  1  6  0  0  0
 14  2  1  0  0  0  0
 14 17  1  0  0  0  0
 14 12  1  0  0  0  0
 15 20  1  0  0  0  0
 17 19  2  0  0  0  0
 19 26  1  0  0  0  0
 19 15  1  0  0  0  0
 21 17  1  0  0  0  0
 22 24  1  0  0  0  0
 23 22  2  0  0  0  0
 24 25  1  0  0  0  0
 26 27  2  0  0  0  0
 28 29  1  0  0  0  0
 28 26  1  0  0  0  0
M  RAD  3  10   2  11   2  15   2
M  END
