Coordinates from ORCA-job 1g-Schema6-R11-K+-B3LYPG-6-31G_dp-scan-d49-09-n400
 OpenBabel08281819543D

 29 29  0  0  0  0  0  0  0  0999 V2000
   -0.8863    2.0187   -1.7219 C   0  0  0  0  0  0  0  0  0  0  0  0
    0.3375    1.6388   -1.2275 C   0  0  0  0  0  0  0  0  0  0  0  0
    0.7471    1.2463   -0.1073 C   0  0  0  0  0  0  0  0  0  0  0  0
   -0.1417    1.1293    0.9644 C   0  0  0  0  0  0  0  0  0  0  0  0
   -1.4689    1.4861    0.6262 C   0  0  0  0  0  0  0  0  0  0  0  0
   -1.8252    1.9156   -0.6707 C   0  0  0  0  0  0  0  0  0  0  0  0
   -1.1423    2.3485   -2.7201 H   0  0  0  0  0  0  0  0  0  0  0  0
   -2.8581    2.1803   -0.8716 H   0  0  0  0  0  0  0  0  0  0  0  0
    0.0918    0.8067    1.9724 H   0  0  0  0  0  0  0  0  0  0  0  0
    3.2919   -2.3748   -0.4232 N   0  0  0  0  0  0  0  0  0  0  0  0
    3.9137   -1.5393   -0.0246 N   0  0  0  0  0  0  0  0  0  0  0  0
    4.6784   -0.5053    0.4682 C   0  0  0  0  0  0  0  0  0  0  0  0
    6.0053   -0.7900    0.8575 C   0  0  0  0  0  0  0  0  0  0  0  0
    4.0796    0.7679    0.5509 C   0  0  0  0  0  0  0  0  0  0  0  0
    6.7518    0.2647    1.3518 C   0  0  0  0  0  0  0  0  0  0  0  0
    6.4121   -1.7915    0.7702 H   0  0  0  0  0  0  0  0  0  0  0  0
    4.8640    1.7972    1.0523 C   0  0  0  0  0  0  0  0  0  0  0  0
    3.0464    0.9239    0.2378 H   0  0  0  0  0  0  0  0  0  0  0  0
    6.1877    1.5492    1.4494 C   0  0  0  0  0  0  0  0  0  0  0  0
    7.7781    0.1215    1.6716 H   0  0  0  0  0  0  0  0  0  0  0  0
    4.4521    2.7960    1.1390 H   0  0  0  0  0  0  0  0  0  0  0  0
   -2.4821    1.3837    1.7224 C   0  0  0  0  0  0  0  0  0  0  0  0
   -2.2249    1.0153    2.8493 O   0  0  0  0  0  0  0  0  0  0  0  0
   -3.7213    1.7439    1.3275 O   0  0  0  0  0  0  0  0  0  0  0  0
   -4.3016    1.6450    2.1014 H   0  0  0  0  0  0  0  0  0  0  0  0
    7.0718    2.6395    2.0000 C   0  0  0  0  0  0  0  0  0  0  0  0
    8.2114    2.4378    2.3490 O   0  0  0  0  0  0  0  0  0  0  0  0
    6.4424    3.8215    2.0495 O   0  0  0  0  0  0  0  0  0  0  0  0
    7.0614    4.4789    2.4129 H   0  0  0  0  0  0  0  0  0  0  0  0
  1  2  2  0  0  0  0
  1  6  1  0  0  0  0
  2  3  1  0  0  0  0
  3  4  2  0  0  0  0
  4  9  1  0  0  0  0
  5  4  1  0  0  0  0
  5 22  1  0  0  0  0
  6  5  2  0  0  0  0
  7  1  1  0  0  0  0
  8  6  1  0  0  0  0
 10 11  1  0  0  0  0
 11 12  1  0  0  0  0
 12 14  2  0  0  0  0
 12 13  1  0  0  0  0
 13 15  2  0  0  0  0
 14 17  1  0  0  0  0
 15 19  1  0  0  0  0
 15 20  1  0  0  0  0
 16 13  1  0  0  0  0
 17 21  1  0  0  0  0
 17 19  2  0  0  0  0
 18 14  1  0  0  0  0
 19 26  1  0  0  0  0
 22 23  2  0  0  0  0
 24 22  1  0  0  0  0
 24 25  1  0  0  0  0
 26 28  1  0  0  0  0
 26 27  2  0  0  0  0
 28 29  1  0  0  0  0
M  RAD  4   2   2   3   2  10   3  11   2
M  END
