Coordinates from ORCA-job 1g-Schema6-R11-K+-B3LYPG-6-31G_dp-scan-d49-09-n400
 OpenBabel08281819543D

 29 29  0  0  0  0  0  0  0  0999 V2000
   -0.8291    2.0758   -1.6852 C   0  0  0  0  0  0  0  0  0  0  0  0
    0.3704    1.6600   -1.1606 C   0  0  0  0  0  0  0  0  0  0  0  0
    0.7341    1.2308   -0.0381 C   0  0  0  0  0  0  0  0  0  0  0  0
   -0.1927    1.1020    0.9996 C   0  0  0  0  0  0  0  0  0  0  0  0
   -1.5009    1.4925    0.6267 C   0  0  0  0  0  0  0  0  0  0  0  0
   -1.8050    1.9626   -0.6694 C   0  0  0  0  0  0  0  0  0  0  0  0
   -1.0452    2.4361   -2.6824 H   0  0  0  0  0  0  0  0  0  0  0  0
   -2.8256    2.2514   -0.8980 H   0  0  0  0  0  0  0  0  0  0  0  0
    0.0005    0.7484    2.0057 H   0  0  0  0  0  0  0  0  0  0  0  0
    3.3293   -2.4466   -0.3261 N   0  0  0  0  0  0  0  0  0  0  0  0
    3.9455   -1.5950    0.0463 N   0  0  0  0  0  0  0  0  0  0  0  0
    4.7030   -0.5409    0.5065 C   0  0  0  0  0  0  0  0  0  0  0  0
    6.0577   -0.7876    0.8188 C   0  0  0  0  0  0  0  0  0  0  0  0
    4.0713    0.7123    0.6359 C   0  0  0  0  0  0  0  0  0  0  0  0
    6.7985    0.2850    1.2822 C   0  0  0  0  0  0  0  0  0  0  0  0
    6.4892   -1.7752    0.6983 H   0  0  0  0  0  0  0  0  0  0  0  0
    4.8513    1.7607    1.1037 C   0  0  0  0  0  0  0  0  0  0  0  0
    3.0191    0.8444    0.3800 H   0  0  0  0  0  0  0  0  0  0  0  0
    6.2019    1.5504    1.4246 C   0  0  0  0  0  0  0  0  0  0  0  0
    7.8447    0.1705    1.5438 H   0  0  0  0  0  0  0  0  0  0  0  0
    4.4147    2.7454    1.2232 H   0  0  0  0  0  0  0  0  0  0  0  0
   -2.5528    1.3801    1.6849 C   0  0  0  0  0  0  0  0  0  0  0  0
   -2.3406    0.9796    2.8101 O   0  0  0  0  0  0  0  0  0  0  0  0
   -3.7715    1.7719    1.2574 O   0  0  0  0  0  0  0  0  0  0  0  0
   -4.3796    1.6638    2.0084 H   0  0  0  0  0  0  0  0  0  0  0  0
    7.0815    2.6625    1.9376 C   0  0  0  0  0  0  0  0  0  0  0  0
    8.2452    2.4938    2.2180 O   0  0  0  0  0  0  0  0  0  0  0  0
    6.4198    3.8237    2.0350 O   0  0  0  0  0  0  0  0  0  0  0  0
    7.0378    4.4970    2.3700 H   0  0  0  0  0  0  0  0  0  0  0  0
  1  2  2  0  0  0  0
  1  6  1  0  0  0  0
  2  3  1  0  0  0  0
  3  4  2  0  0  0  0
  4  9  1  0  0  0  0
  5  4  1  0  0  0  0
  5 22  1  0  0  0  0
  6  5  2  0  0  0  0
  7  1  1  0  0  0  0
  8  6  1  0  0  0  0
 10 11  1  0  0  0  0
 11 12  1  0  0  0  0
 12 14  2  0  0  0  0
 12 13  1  0  0  0  0
 13 15  2  0  0  0  0
 14 17  1  0  0  0  0
 15 19  1  0  0  0  0
 15 20  1  0  0  0  0
 16 13  1  0  0  0  0
 17 21  1  0  0  0  0
 17 19  2  0  0  0  0
 18 14  1  0  0  0  0
 19 26  1  0  0  0  0
 22 23  2  0  0  0  0
 24 22  1  0  0  0  0
 24 25  1  0  0  0  0
 26 28  1  0  0  0  0
 26 27  2  0  0  0  0
 28 29  1  0  0  0  0
M  RAD  4   2   2   3   2  10   3  11   2
M  END
