Coordinates from ORCA-job 1g-Schema6-R11-K+-B3LYPG-6-31G_dp-scan-d49-09-n400
 OpenBabel08281819543D

 29 29  0  0  0  0  0  0  0  0999 V2000
   -0.7439    2.1422   -1.6284 C   0  0  0  0  0  0  0  0  0  0  0  0
    0.4239    1.6085   -1.1359 C   0  0  0  0  0  0  0  0  0  0  0  0
    0.7554    1.1411   -0.0196 C   0  0  0  0  0  0  0  0  0  0  0  0
   -0.1513    1.0914    1.0394 C   0  0  0  0  0  0  0  0  0  0  0  0
   -1.4222    1.6113    0.6946 C   0  0  0  0  0  0  0  0  0  0  0  0
   -1.7048    2.1177   -0.5929 C   0  0  0  0  0  0  0  0  0  0  0  0
   -0.9464    2.5279   -2.6190 H   0  0  0  0  0  0  0  0  0  0  0  0
   -2.6976    2.5042   -0.7982 H   0  0  0  0  0  0  0  0  0  0  0  0
    0.0273    0.7116    2.0385 H   0  0  0  0  0  0  0  0  0  0  0  0
    3.8547   -2.8378   -0.5139 N   0  0  0  0  0  0  0  0  0  0  0  0
    4.3170   -1.9083   -0.1061 N   0  0  0  0  0  0  0  0  0  0  0  0
    4.8858   -0.7599    0.3976 C   0  0  0  0  0  0  0  0  0  0  0  0
    6.2387   -0.8164    0.7991 C   0  0  0  0  0  0  0  0  0  0  0  0
    4.0797    0.3936    0.4793 C   0  0  0  0  0  0  0  0  0  0  0  0
    6.7918    0.3470    1.3037 C   0  0  0  0  0  0  0  0  0  0  0  0
    6.8101   -1.7340    0.7125 H   0  0  0  0  0  0  0  0  0  0  0  0
    4.6742    1.5381    0.9917 C   0  0  0  0  0  0  0  0  0  0  0  0
    3.0378    0.3943    0.1604 H   0  0  0  0  0  0  0  0  0  0  0  0
    6.0174    1.5168    1.4001 C   0  0  0  0  0  0  0  0  0  0  0  0
    7.8245    0.3785    1.6326 H   0  0  0  0  0  0  0  0  0  0  0  0
    4.0952    2.4505    1.0764 H   0  0  0  0  0  0  0  0  0  0  0  0
   -2.4582    1.5957    1.7739 C   0  0  0  0  0  0  0  0  0  0  0  0
   -2.2629    1.1719    2.8937 O   0  0  0  0  0  0  0  0  0  0  0  0
   -3.6422    2.1051    1.3730 O   0  0  0  0  0  0  0  0  0  0  0  0
   -4.2424    2.0511    2.1361 H   0  0  0  0  0  0  0  0  0  0  0  0
    6.7001    2.7385    1.9613 C   0  0  0  0  0  0  0  0  0  0  0  0
    7.8558    2.7308    2.3158 O   0  0  0  0  0  0  0  0  0  0  0  0
    5.8792    3.7964    2.0107 O   0  0  0  0  0  0  0  0  0  0  0  0
    6.3757    4.5476    2.3806 H   0  0  0  0  0  0  0  0  0  0  0  0
  1  2  2  0  0  0  0
  1  6  1  0  0  0  0
  2  3  1  0  0  0  0
  3  4  2  0  0  0  0
  4  9  1  0  0  0  0
  5  4  1  0  0  0  0
  5 22  1  0  0  0  0
  6  5  2  0  0  0  0
  7  1  1  0  0  0  0
  8  6  1  0  0  0  0
 10 11  1  0  0  0  0
 11 12  1  0  0  0  0
 12 14  2  0  0  0  0
 12 13  1  0  0  0  0
 13 15  2  0  0  0  0
 14 17  1  0  0  0  0
 15 19  1  0  0  0  0
 15 20  1  0  0  0  0
 16 13  1  0  0  0  0
 17 21  1  0  0  0  0
 17 19  2  0  0  0  0
 18 14  1  0  0  0  0
 19 26  1  0  0  0  0
 22 23  2  0  0  0  0
 24 22  1  0  0  0  0
 24 25  1  0  0  0  0
 26 28  1  0  0  0  0
 26 27  2  0  0  0  0
 28 29  1  0  0  0  0
M  RAD  4   2   2   3   2  10   3  11   2
M  END
