Coordinates from ORCA-job 1g-Schema6-R11-K+-B3LYPG-6-31G_dp-scan-d49-09-n400
 OpenBabel08281819543D

 29 31  0  0  1  0  0  0  0  0999 V2000
    1.2444    2.1280    0.5535 C   0  0  0  0  0  0  0  0  0  0  0  0
    1.9687    1.0066    0.1903 C   0  0  0  0  0  0  0  0  0  0  0  0
    1.3287   -0.2614    0.1430 C   0  0  0  0  0  0  0  0  0  0  0  0
   -0.0418   -0.3459    0.4524 C   0  0  0  0  0  0  0  0  0  0  0  0
   -0.7511    0.7774    0.8808 C   0  0  0  0  0  0  0  0  0  0  0  0
   -0.1055    2.0141    0.9310 C   0  0  0  0  0  0  0  0  0  0  0  0
    1.7207    3.1028    0.5674 H   0  0  0  0  0  0  0  0  0  0  0  0
   -0.6483    2.8919    1.2632 H   0  0  0  0  0  0  0  0  0  0  0  0
   -0.5508   -1.3015    0.3692 H   0  0  0  0  0  0  0  0  0  0  0  0
    1.9083   -1.3889   -0.3339 N   0  0  0  0  0  0  0  0  0  0  0  0
    3.1001   -1.2785   -0.0614 N   0  0  0  0  0  0  0  0  0  0  0  0
    3.8952   -0.2696    0.2467 C   0  0  0  0  0  0  0  0  0  0  0  0
    4.9831   -0.4050    1.1316 C   0  0  0  0  0  0  0  0  0  0  0  0
    3.4402    1.0509   -0.2799 C   0  0  2  0  0  0  0  0  0  0  0  0
    5.6754    0.7286    1.4893 C   0  0  0  0  0  0  0  0  0  0  0  0
    5.2333   -1.3820    1.5289 H   0  0  0  0  0  0  0  0  0  0  0  0
    4.2970    2.2008    0.1238 C   0  0  0  0  0  0  0  0  0  0  0  0
    3.3967    1.0581   -1.3846 H   0  0  0  0  0  0  0  0  0  0  0  0
    5.3439    2.0332    0.9730 C   0  0  0  0  0  0  0  0  0  0  0  0
    6.5140    0.6716    2.1775 H   0  0  0  0  0  0  0  0  0  0  0  0
    4.1135    3.1669   -0.3346 H   0  0  0  0  0  0  0  0  0  0  0  0
   -2.1948    0.5935    1.2446 C   0  0  0  0  0  0  0  0  0  0  0  0
   -2.7605   -0.4741    1.1857 O   0  0  0  0  0  0  0  0  0  0  0  0
   -2.7691    1.7432    1.6392 O   0  0  0  0  0  0  0  0  0  0  0  0
   -3.6963    1.5477    1.8600 H   0  0  0  0  0  0  0  0  0  0  0  0
    6.2298    3.1692    1.4057 C   0  0  0  0  0  0  0  0  0  0  0  0
    7.1501    3.0199    2.1750 O   0  0  0  0  0  0  0  0  0  0  0  0
    5.8682    4.3357    0.8497 O   0  0  0  0  0  0  0  0  0  0  0  0
    6.4794    5.0220    1.1701 H   0  0  0  0  0  0  0  0  0  0  0  0
  1  7  1  0  0  0  0
  1  6  2  0  0  0  0
  2  1  1  0  0  0  0
  3  2  2  0  0  0  0
  3  4  1  0  0  0  0
  4  5  2  0  0  0  0
  5  6  1  0  0  0  0
  5 22  1  0  0  0  0
  6  8  1  0  0  0  0
  9  4  1  0  0  0  0
 10 11  1  0  0  0  0
 10  3  1  0  0  0  0
 11 12  1  0  0  0  0
 12 13  2  0  0  0  0
 13 15  1  0  0  0  0
 13 16  1  0  0  0  0
 14 18  1  6  0  0  0
 14 17  1  0  0  0  0
 14  2  1  0  0  0  0
 14 12  1  0  0  0  0
 15 20  1  0  0  0  0
 17 19  2  0  0  0  0
 19 26  1  0  0  0  0
 19 15  1  0  0  0  0
 21 17  1  0  0  0  0
 22 24  1  0  0  0  0
 23 22  2  0  0  0  0
 24 25  1  0  0  0  0
 26 27  2  0  0  0  0
 28 29  1  0  0  0  0
 28 26  1  0  0  0  0
M  RAD  3  10   2  11   2  15   2
M  END
