Coordinates from ORCA-job 1g-Schema6-R11-K+-B3LYPG-6-31G_dp-scan-d49-09-n400
 OpenBabel08281819543D

 29 31  0  0  1  0  0  0  0  0999 V2000
    1.2545    2.1262    0.5388 C   0  0  0  0  0  0  0  0  0  0  0  0
    1.9757    1.0078    0.1628 C   0  0  0  0  0  0  0  0  0  0  0  0
    1.3383   -0.2637    0.1182 C   0  0  0  0  0  0  0  0  0  0  0  0
   -0.0299   -0.3451    0.4414 C   0  0  0  0  0  0  0  0  0  0  0  0
   -0.7353    0.7751    0.8856 C   0  0  0  0  0  0  0  0  0  0  0  0
   -0.0909    2.0117    0.9326 C   0  0  0  0  0  0  0  0  0  0  0  0
    1.7320    3.1004    0.5507 H   0  0  0  0  0  0  0  0  0  0  0  0
   -0.6296    2.8883    1.2747 H   0  0  0  0  0  0  0  0  0  0  0  0
   -0.5422   -1.2989    0.3572 H   0  0  0  0  0  0  0  0  0  0  0  0
    1.9022   -1.3873   -0.3764 N   0  0  0  0  0  0  0  0  0  0  0  0
    3.0801   -1.2533   -0.0767 N   0  0  0  0  0  0  0  0  0  0  0  0
    3.8881   -0.2662    0.2343 C   0  0  0  0  0  0  0  0  0  0  0  0
    4.9514   -0.3994    1.1532 C   0  0  0  0  0  0  0  0  0  0  0  0
    3.4467    1.0545   -0.3109 C   0  0  2  0  0  0  0  0  0  0  0  0
    5.6400    0.7328    1.5153 C   0  0  0  0  0  0  0  0  0  0  0  0
    5.1838   -1.3733    1.5681 H   0  0  0  0  0  0  0  0  0  0  0  0
    4.3058    2.2009    0.0993 C   0  0  0  0  0  0  0  0  0  0  0  0
    3.4072    1.0563   -1.4148 H   0  0  0  0  0  0  0  0  0  0  0  0
    5.3294    2.0346    0.9756 C   0  0  0  0  0  0  0  0  0  0  0  0
    6.4611    0.6786    2.2244 H   0  0  0  0  0  0  0  0  0  0  0  0
    4.1429    3.1625   -0.3763 H   0  0  0  0  0  0  0  0  0  0  0  0
   -2.1741    0.5869    1.2661 C   0  0  0  0  0  0  0  0  0  0  0  0
   -2.7387   -0.4814    1.2086 O   0  0  0  0  0  0  0  0  0  0  0  0
   -2.7455    1.7336    1.6734 O   0  0  0  0  0  0  0  0  0  0  0  0
   -3.6697    1.5356    1.9041 H   0  0  0  0  0  0  0  0  0  0  0  0
    6.2142    3.1685    1.4155 C   0  0  0  0  0  0  0  0  0  0  0  0
    7.1162    3.0211    2.2067 O   0  0  0  0  0  0  0  0  0  0  0  0
    5.8744    4.3320    0.8394 O   0  0  0  0  0  0  0  0  0  0  0  0
    6.4843    5.0164    1.1661 H   0  0  0  0  0  0  0  0  0  0  0  0
  1  7  1  0  0  0  0
  1  6  2  0  0  0  0
  2  1  1  0  0  0  0
  3  2  2  0  0  0  0
  3  4  1  0  0  0  0
  4  5  2  0  0  0  0
  5  6  1  0  0  0  0
  5 22  1  0  0  0  0
  6  8  1  0  0  0  0
  9  4  1  0  0  0  0
 10 11  1  0  0  0  0
 10  3  1  0  0  0  0
 11 12  1  0  0  0  0
 12 13  2  0  0  0  0
 13 15  1  0  0  0  0
 13 16  1  0  0  0  0
 14 18  1  6  0  0  0
 14 17  1  0  0  0  0
 14  2  1  0  0  0  0
 14 12  1  0  0  0  0
 15 20  1  0  0  0  0
 17 19  2  0  0  0  0
 19 26  1  0  0  0  0
 19 15  1  0  0  0  0
 21 17  1  0  0  0  0
 22 24  1  0  0  0  0
 23 22  2  0  0  0  0
 24 25  1  0  0  0  0
 26 27  2  0  0  0  0
 28 29  1  0  0  0  0
 28 26  1  0  0  0  0
M  RAD  3  10   2  11   2  15   2
M  END
