Coordinates from ORCA-job 1g-Schema6-R11-K+-B3LYPG-6-31G_dp-scan-d49-09-n400
 OpenBabel08281819543D

 29 29  0  0  0  0  0  0  0  0999 V2000
   -0.9446    1.9541   -1.7569 C   0  0  0  0  0  0  0  0  0  0  0  0
    0.3069    1.6936   -1.2558 C   0  0  0  0  0  0  0  0  0  0  0  0
    0.7504    1.3297   -0.1384 C   0  0  0  0  0  0  0  0  0  0  0  0
   -0.1301    1.1189    0.9267 C   0  0  0  0  0  0  0  0  0  0  0  0
   -1.4843    1.3441    0.5830 C   0  0  0  0  0  0  0  0  0  0  0  0
   -1.8742    1.7485   -0.7122 C   0  0  0  0  0  0  0  0  0  0  0  0
   -1.2259    2.2683   -2.7533 H   0  0  0  0  0  0  0  0  0  0  0  0
   -2.9272    1.9135   -0.9169 H   0  0  0  0  0  0  0  0  0  0  0  0
    0.1275    0.8143    1.9347 H   0  0  0  0  0  0  0  0  0  0  0  0
    2.7645   -1.8412   -0.2831 N   0  0  0  0  0  0  0  0  0  0  0  0
    3.5330   -1.1242    0.0887 N   0  0  0  0  0  0  0  0  0  0  0  0
    4.4703   -0.2250    0.5481 C   0  0  0  0  0  0  0  0  0  0  0  0
    5.7169   -0.7224    0.9843 C   0  0  0  0  0  0  0  0  0  0  0  0
    4.1106    1.1373    0.5517 C   0  0  0  0  0  0  0  0  0  0  0  0
    6.6330    0.2070    1.4447 C   0  0  0  0  0  0  0  0  0  0  0  0
    5.9381   -1.7837    0.9575 H   0  0  0  0  0  0  0  0  0  0  0  0
    5.0573    2.0358    1.0226 C   0  0  0  0  0  0  0  0  0  0  0  0
    3.1245    1.4395    0.2027 H   0  0  0  0  0  0  0  0  0  0  0  0
    6.3080    1.5751    1.4652 C   0  0  0  0  0  0  0  0  0  0  0  0
    7.6114   -0.1002    1.7971 H   0  0  0  0  0  0  0  0  0  0  0  0
    4.8318    3.0956    1.0500 H   0  0  0  0  0  0  0  0  0  0  0  0
   -2.4887    1.1291    1.6716 C   0  0  0  0  0  0  0  0  0  0  0  0
   -2.2020    0.7653    2.7929 O   0  0  0  0  0  0  0  0  0  0  0  0
   -3.7537    1.3799    1.2758 O   0  0  0  0  0  0  0  0  0  0  0  0
   -4.3264    1.2140    2.0439 H   0  0  0  0  0  0  0  0  0  0  0  0
    7.3647    2.5166    1.9851 C   0  0  0  0  0  0  0  0  0  0  0  0
    8.4456    2.1331    2.3676 O   0  0  0  0  0  0  0  0  0  0  0  0
    6.9566    3.7928    1.9662 O   0  0  0  0  0  0  0  0  0  0  0  0
    7.6784    4.3459    2.3135 H   0  0  0  0  0  0  0  0  0  0  0  0
  1  2  2  0  0  0  0
  1  6  1  0  0  0  0
  2  3  1  0  0  0  0
  3  4  2  0  0  0  0
  4  9  1  0  0  0  0
  5  4  1  0  0  0  0
  5 22  1  0  0  0  0
  6  5  2  0  0  0  0
  7  1  1  0  0  0  0
  8  6  1  0  0  0  0
 10 11  1  0  0  0  0
 11 12  1  0  0  0  0
 12 14  2  0  0  0  0
 12 13  1  0  0  0  0
 13 15  2  0  0  0  0
 14 17  1  0  0  0  0
 15 19  1  0  0  0  0
 15 20  1  0  0  0  0
 16 13  1  0  0  0  0
 17 21  1  0  0  0  0
 17 19  2  0  0  0  0
 18 14  1  0  0  0  0
 19 26  1  0  0  0  0
 22 23  2  0  0  0  0
 24 22  1  0  0  0  0
 24 25  1  0  0  0  0
 26 27  2  0  0  0  0
 28 26  1  0  0  0  0
 28 29  1  0  0  0  0
M  RAD  4   2   2   3   2  10   3  11   2
M  END
