Coordinates from ORCA-job 1g-Schema6-R11-K+-B3LYPG-6-31G_dp-scan-d49-09-n400
 OpenBabel08281819543D

 29 30  0  0  0  0  0  0  0  0999 V2000
   -0.7531    1.5041   -1.7991 C   0  0  0  0  0  0  0  0  0  0  0  0
    0.2632    0.6203   -1.6984 C   0  0  0  0  0  0  0  0  0  0  0  0
    0.9731    0.0422   -0.7679 C   0  0  0  0  0  0  0  0  0  0  0  0
    0.4477    0.2742    0.5251 C   0  0  0  0  0  0  0  0  0  0  0  0
   -0.6668    1.1163    0.6370 C   0  0  0  0  0  0  0  0  0  0  0  0
   -1.2642    1.7089   -0.4907 C   0  0  0  0  0  0  0  0  0  0  0  0
   -1.2061    1.9188   -2.6915 H   0  0  0  0  0  0  0  0  0  0  0  0
   -2.1666    2.3036   -0.3831 H   0  0  0  0  0  0  0  0  0  0  0  0
    0.9118   -0.1429    1.4146 H   0  0  0  0  0  0  0  0  0  0  0  0
    2.1269   -1.0761   -0.9876 N   0  0  0  0  0  0  0  0  0  0  0  0
    3.2160   -1.0140   -0.4961 N   0  0  0  0  0  0  0  0  0  0  0  0
    3.9782   -0.0643    0.1980 C   0  0  0  0  0  0  0  0  0  0  0  0
    4.9751   -0.5779    1.0465 C   0  0  0  0  0  0  0  0  0  0  0  0
    3.8153    1.3200   -0.0059 C   0  0  0  0  0  0  0  0  0  0  0  0
    5.7716    0.3100    1.7549 C   0  0  0  0  0  0  0  0  0  0  0  0
    5.0930   -1.6517    1.1442 H   0  0  0  0  0  0  0  0  0  0  0  0
    4.6425    2.1914    0.6879 C   0  0  0  0  0  0  0  0  0  0  0  0
    3.0845    1.6974   -0.7112 H   0  0  0  0  0  0  0  0  0  0  0  0
    5.6097    1.6910    1.5761 C   0  0  0  0  0  0  0  0  0  0  0  0
    6.5375   -0.0416    2.4372 H   0  0  0  0  0  0  0  0  0  0  0  0
    4.5517    3.2618    0.5434 H   0  0  0  0  0  0  0  0  0  0  0  0
   -1.1809    1.3622    2.0287 C   0  0  0  0  0  0  0  0  0  0  0  0
   -0.6491    0.9076    3.0155 O   0  0  0  0  0  0  0  0  0  0  0  0
   -2.2778    2.1361    2.0349 O   0  0  0  0  0  0  0  0  0  0  0  0
   -2.5568    2.2496    2.9604 H   0  0  0  0  0  0  0  0  0  0  0  0
    6.5208    2.5989    2.3517 C   0  0  0  0  0  0  0  0  0  0  0  0
    7.3583    2.1939    3.1252 O   0  0  0  0  0  0  0  0  0  0  0  0
    6.2950    3.8987    2.0870 O   0  0  0  0  0  0  0  0  0  0  0  0
    6.9220    4.4170    2.6205 H   0  0  0  0  0  0  0  0  0  0  0  0
  1  2  2  0  0  0  0
  1  6  1  0  0  0  0
  2  3  1  0  0  0  0
  3  4  2  0  0  0  0
  4  5  1  0  0  0  0
  4  9  1  0  0  0  0
  5 22  1  0  0  0  0
  6  8  1  0  0  0  0
  6  5  2  0  0  0  0
  7  1  1  0  0  0  0
 10  3  1  0  0  0  0
 10 11  2  0  0  0  0
 11 12  1  0  0  0  0
 12 13  1  0  0  0  0
 13 16  1  0  0  0  0
 13 15  2  0  0  0  0
 14 12  2  0  0  0  0
 14 17  1  0  0  0  0
 15 20  1  0  0  0  0
 17 19  2  0  0  0  0
 18 14  1  0  0  0  0
 19 15  1  0  0  0  0
 19 26  1  0  0  0  0
 21 17  1  0  0  0  0
 22 24  1  0  0  0  0
 22 23  2  0  0  0  0
 24 25  1  0  0  0  0
 26 27  2  0  0  0  0
 28 26  1  0  0  0  0
 28 29  1  0  0  0  0
M  RAD  1   2   2
M  END
