Coordinates from ORCA-job 1g-Schema6-R11-K+-B3LYPG-6-31G_dp-scan-d49-09-n400
 OpenBabel08281819543D

 29 29  0  0  0  0  0  0  0  0999 V2000
   -0.9192    1.9867   -1.7478 C   0  0  0  0  0  0  0  0  0  0  0  0
    0.3230    1.6606   -1.2621 C   0  0  0  0  0  0  0  0  0  0  0  0
    0.7619    1.2837   -0.1474 C   0  0  0  0  0  0  0  0  0  0  0  0
   -0.1142    1.1282    0.9307 C   0  0  0  0  0  0  0  0  0  0  0  0
   -1.4586    1.4260    0.6041 C   0  0  0  0  0  0  0  0  0  0  0  0
   -1.8441    1.8410   -0.6890 C   0  0  0  0  0  0  0  0  0  0  0  0
   -1.1969    2.3068   -2.7433 H   0  0  0  0  0  0  0  0  0  0  0  0
   -2.8892    2.0612   -0.8811 H   0  0  0  0  0  0  0  0  0  0  0  0
    0.1411    0.8163    1.9370 H   0  0  0  0  0  0  0  0  0  0  0  0
    3.0517   -2.1539   -0.3772 N   0  0  0  0  0  0  0  0  0  0  0  0
    3.7373   -1.3664    0.0142 N   0  0  0  0  0  0  0  0  0  0  0  0
    4.5784   -0.3888    0.4982 C   0  0  0  0  0  0  0  0  0  0  0  0
    5.8713   -0.7693    0.9179 C   0  0  0  0  0  0  0  0  0  0  0  0
    4.0818    0.9292    0.5416 C   0  0  0  0  0  0  0  0  0  0  0  0
    6.6905    0.2349    1.4026 C   0  0  0  0  0  0  0  0  0  0  0  0
    6.1988   -1.8014    0.8602 H   0  0  0  0  0  0  0  0  0  0  0  0
    4.9354    1.9054    1.0357 C   0  0  0  0  0  0  0  0  0  0  0  0
    3.0679    1.1458    0.2041 H   0  0  0  0  0  0  0  0  0  0  0  0
    6.2283    1.5620    1.4625 C   0  0  0  0  0  0  0  0  0  0  0  0
    7.6967    0.0189    1.7444 H   0  0  0  0  0  0  0  0  0  0  0  0
    4.6032    2.9353    1.0939 H   0  0  0  0  0  0  0  0  0  0  0  0
   -2.4574    1.2769    1.7084 C   0  0  0  0  0  0  0  0  0  0  0  0
   -2.1750    0.9135    2.8310 O   0  0  0  0  0  0  0  0  0  0  0  0
   -3.7134    1.5877    1.3259 O   0  0  0  0  0  0  0  0  0  0  0  0
   -4.2828    1.4615    2.1039 H   0  0  0  0  0  0  0  0  0  0  0  0
    7.1867    2.5911    2.0066 C   0  0  0  0  0  0  0  0  0  0  0  0
    8.3022    2.3088    2.3774 O   0  0  0  0  0  0  0  0  0  0  0  0
    6.6517    3.8196    2.0220 O   0  0  0  0  0  0  0  0  0  0  0  0
    7.3152    4.4339    2.3826 H   0  0  0  0  0  0  0  0  0  0  0  0
  1  2  2  0  0  0  0
  1  6  1  0  0  0  0
  2  3  1  0  0  0  0
  3  4  2  0  0  0  0
  4  9  1  0  0  0  0
  5  4  1  0  0  0  0
  5 22  1  0  0  0  0
  6  5  2  0  0  0  0
  7  1  1  0  0  0  0
  8  6  1  0  0  0  0
 10 11  1  0  0  0  0
 11 12  1  0  0  0  0
 12 14  2  0  0  0  0
 12 13  1  0  0  0  0
 13 15  2  0  0  0  0
 14 17  1  0  0  0  0
 15 19  1  0  0  0  0
 15 20  1  0  0  0  0
 16 13  1  0  0  0  0
 17 21  1  0  0  0  0
 17 19  2  0  0  0  0
 18 14  1  0  0  0  0
 19 26  1  0  0  0  0
 22 23  2  0  0  0  0
 24 22  1  0  0  0  0
 24 25  1  0  0  0  0
 26 28  1  0  0  0  0
 26 27  2  0  0  0  0
 28 29  1  0  0  0  0
M  RAD  4   2   2   3   2  10   3  11   2
M  END
