Coordinates from ORCA-job 1g-Schema6-R11-K+-B3LYPG-6-31G_dp-scan-d49-09-n400
 OpenBabel08281819543D

 29 29  0  0  0  0  0  0  0  0999 V2000
   -1.0111    1.2942   -1.9520 C   0  0  0  0  0  0  0  0  0  0  0  0
    0.1166    0.5772   -1.6819 C   0  0  0  0  0  0  0  0  0  0  0  0
    0.7207    0.1464   -0.6549 C   0  0  0  0  0  0  0  0  0  0  0  0
    0.1285    0.4163    0.5877 C   0  0  0  0  0  0  0  0  0  0  0  0
   -1.0692    1.1621    0.5211 C   0  0  0  0  0  0  0  0  0  0  0  0
   -1.6223    1.5816   -0.7059 C   0  0  0  0  0  0  0  0  0  0  0  0
   -1.4127    1.6078   -2.9064 H   0  0  0  0  0  0  0  0  0  0  0  0
   -2.5499    2.1449   -0.7075 H   0  0  0  0  0  0  0  0  0  0  0  0
    0.5110    0.0943    1.5514 H   0  0  0  0  0  0  0  0  0  0  0  0
    2.3128   -1.3038   -0.6183 N   0  0  0  0  0  0  0  0  0  0  0  0
    3.2289   -0.8414   -0.1392 N   0  0  0  0  0  0  0  0  0  0  0  0
    4.1550    0.0071    0.4374 C   0  0  0  0  0  0  0  0  0  0  0  0
    5.3941   -0.5371    0.8234 C   0  0  0  0  0  0  0  0  0  0  0  0
    3.8216    1.3657    0.6043 C   0  0  0  0  0  0  0  0  0  0  0  0
    6.3229    0.3162    1.3988 C   0  0  0  0  0  0  0  0  0  0  0  0
    5.6028   -1.5900    0.6704 H   0  0  0  0  0  0  0  0  0  0  0  0
    4.7729    2.1950    1.1810 C   0  0  0  0  0  0  0  0  0  0  0  0
    2.8534    1.7373    0.2910 H   0  0  0  0  0  0  0  0  0  0  0  0
    6.0161    1.6739    1.5769 C   0  0  0  0  0  0  0  0  0  0  0  0
    7.2942   -0.0445    1.7181 H   0  0  0  0  0  0  0  0  0  0  0  0
    4.5589    3.2467    1.3298 H   0  0  0  0  0  0  0  0  0  0  0  0
   -1.7220    1.4855    1.8317 C   0  0  0  0  0  0  0  0  0  0  0  0
   -1.2464    1.1842    2.9048 O   0  0  0  0  0  0  0  0  0  0  0  0
   -2.8840    2.1481    1.6834 O   0  0  0  0  0  0  0  0  0  0  0  0
   -3.2373    2.3145    2.5743 H   0  0  0  0  0  0  0  0  0  0  0  0
    7.0755    2.5380    2.2073 C   0  0  0  0  0  0  0  0  0  0  0  0
    8.1513    2.1081    2.5542 O   0  0  0  0  0  0  0  0  0  0  0  0
    6.6810    3.8151    2.3320 O   0  0  0  0  0  0  0  0  0  0  0  0
    7.4093    4.3119    2.7440 H   0  0  0  0  0  0  0  0  0  0  0  0
  1  2  2  0  0  0  0
  1  6  1  0  0  0  0
  2  3  1  0  0  0  0
  3  4  2  0  0  0  0
  4  9  1  0  0  0  0
  5  4  1  0  0  0  0
  5 22  1  0  0  0  0
  6  5  2  0  0  0  0
  7  1  1  0  0  0  0
  8  6  1  0  0  0  0
 10 11  1  0  0  0  0
 11 12  1  0  0  0  0
 12 14  2  0  0  0  0
 12 13  1  0  0  0  0
 13 15  2  0  0  0  0
 14 17  1  0  0  0  0
 15 19  1  0  0  0  0
 15 20  1  0  0  0  0
 16 13  1  0  0  0  0
 17 21  1  0  0  0  0
 17 19  2  0  0  0  0
 18 14  1  0  0  0  0
 19 26  1  0  0  0  0
 22 23  2  0  0  0  0
 24 22  1  0  0  0  0
 24 25  1  0  0  0  0
 26 28  1  0  0  0  0
 26 27  2  0  0  0  0
 28 29  1  0  0  0  0
M  RAD  4   2   2   3   2  10   3  11   2
M  END
