Coordinates from ORCA-job 1g-Schema6-R11-K+-B3LYPG-6-31G_dp-scan-d49-09-n400
 OpenBabel08281819543D

 29 31  0  0  0  0  0  0  0  0999 V2000
    0.9087    2.4632    0.5478 C   0  0  0  0  0  0  0  0  0  0  0  0
    1.8975    1.4881    0.5960 C   0  0  0  0  0  0  0  0  0  0  0  0
    1.5614   -0.0020    0.6477 C   0  0  0  0  0  0  0  0  0  0  0  0
    0.1188   -0.3105    0.8934 C   0  0  0  0  0  0  0  0  0  0  0  0
   -0.8100    0.6840    0.7981 C   0  0  0  0  0  0  0  0  0  0  0  0
   -0.4182    2.0540    0.6275 C   0  0  0  0  0  0  0  0  0  0  0  0
    1.1538    3.5201    0.5139 H   0  0  0  0  0  0  0  0  0  0  0  0
   -1.2060    2.8002    0.6055 H   0  0  0  0  0  0  0  0  0  0  0  0
   -0.1812   -1.3481    1.0081 H   0  0  0  0  0  0  0  0  0  0  0  0
    1.9564   -0.8579   -0.5864 N   0  0  0  0  0  0  0  0  0  0  0  0
    2.4489   -0.6484    0.8145 N   0  0  0  0  0  0  0  0  0  0  0  0
    3.6641    0.1034    0.9064 C   0  0  0  0  0  0  0  0  0  0  0  0
    4.9666   -0.3412    1.0400 C   0  0  0  0  0  0  0  0  0  0  0  0
    3.3118    1.4807    0.7844 C   0  0  0  0  0  0  0  0  0  0  0  0
    5.9459    0.6523    1.0871 C   0  0  0  0  0  0  0  0  0  0  0  0
    5.2092   -1.3942    1.1245 H   0  0  0  0  0  0  0  0  0  0  0  0
    4.3167    2.4648    0.8387 C   0  0  0  0  0  0  0  0  0  0  0  0
    2.5011   -0.1839   -1.1525 H   0  0  0  0  0  0  0  0  0  0  0  0
    5.6294    2.0306    0.9911 C   0  0  0  0  0  0  0  0  0  0  0  0
    6.9917    0.3904    1.2122 H   0  0  0  0  0  0  0  0  0  0  0  0
    4.0918    3.5233    0.7728 H   0  0  0  0  0  0  0  0  0  0  0  0
   -2.2588    0.2914    0.9256 C   0  0  0  0  0  0  0  0  0  0  0  0
   -2.6214   -0.8505    1.0771 O   0  0  0  0  0  0  0  0  0  0  0  0
   -3.0732    1.3575    0.8536 O   0  0  0  0  0  0  0  0  0  0  0  0
   -3.9887    1.0404    0.9477 H   0  0  0  0  0  0  0  0  0  0  0  0
    6.7798    2.9944    1.0691 C   0  0  0  0  0  0  0  0  0  0  0  0
    7.9298    2.6435    1.1988 O   0  0  0  0  0  0  0  0  0  0  0  0
    6.3772    4.2741    0.9776 O   0  0  0  0  0  0  0  0  0  0  0  0
    7.1696    4.8356    1.0368 H   0  0  0  0  0  0  0  0  0  0  0  0
  1  2  2  0  0  0  0
  1  6  1  0  0  0  0
  2  3  1  0  0  0  0
  2 14  1  0  0  0  0
  3 11  1  0  0  0  0
  3  4  2  0  0  0  0
  4  9  1  0  0  0  0
  5  4  1  0  0  0  0
  5 22  1  0  0  0  0
  6  5  2  0  0  0  0
  7  1  1  0  0  0  0
  8  6  1  0  0  0  0
 10 11  1  0  0  0  0
 11 12  1  0  0  0  0
 12 13  2  0  0  0  0
 13 15  1  0  0  0  0
 13 16  1  0  0  0  0
 14 17  2  0  0  0  0
 14 12  1  0  0  0  0
 15 20  1  0  0  0  0
 17 19  1  0  0  0  0
 18 10  1  0  0  0  0
 19 26  1  0  0  0  0
 19 15  2  0  0  0  0
 21 17  1  0  0  0  0
 22 23  2  0  0  0  0
 24 22  1  0  0  0  0
 24 25  1  0  0  0  0
 26 27  2  0  0  0  0
 28 29  1  0  0  0  0
 28 26  1  0  0  0  0
M  RAD  1  10   2
M  END
