Coordinates from ORCA-job 1g-Schema6-R11-K+-B3LYPG-6-31G_dp-scan-d49-09-n400
 OpenBabel08281819543D

 29 31  0  0  1  0  0  0  0  0999 V2000
    1.2264    2.1327    0.5696 C   0  0  0  0  0  0  0  0  0  0  0  0
    1.9566    1.0076    0.2282 C   0  0  0  0  0  0  0  0  0  0  0  0
    1.3150   -0.2575    0.1798 C   0  0  0  0  0  0  0  0  0  0  0  0
   -0.0588   -0.3470    0.4696 C   0  0  0  0  0  0  0  0  0  0  0  0
   -0.7747    0.7805    0.8730 C   0  0  0  0  0  0  0  0  0  0  0  0
   -0.1293    2.0186    0.9240 C   0  0  0  0  0  0  0  0  0  0  0  0
    1.6998    3.1088    0.5852 H   0  0  0  0  0  0  0  0  0  0  0  0
   -0.6791    2.8981    1.2399 H   0  0  0  0  0  0  0  0  0  0  0  0
   -0.5625   -1.3055    0.3894 H   0  0  0  0  0  0  0  0  0  0  0  0
    1.9151   -1.3909   -0.2717 N   0  0  0  0  0  0  0  0  0  0  0  0
    3.1235   -1.3098   -0.0311 N   0  0  0  0  0  0  0  0  0  0  0  0
    3.9051   -0.2749    0.2674 C   0  0  0  0  0  0  0  0  0  0  0  0
    5.0303   -0.4132    1.0988 C   0  0  0  0  0  0  0  0  0  0  0  0
    3.4300    1.0465   -0.2304 C   0  0  2  0  0  0  0  0  0  0  0  0
    5.7288    0.7218    1.4487 C   0  0  0  0  0  0  0  0  0  0  0  0
    5.3061   -1.3947    1.4676 H   0  0  0  0  0  0  0  0  0  0  0  0
    4.2843    2.2006    0.1650 C   0  0  0  0  0  0  0  0  0  0  0  0
    3.3852    1.0619   -1.3367 H   0  0  0  0  0  0  0  0  0  0  0  0
    5.3662    2.0306    0.9699 C   0  0  0  0  0  0  0  0  0  0  0  0
    6.5944    0.6605    2.1023 H   0  0  0  0  0  0  0  0  0  0  0  0
    4.0705    3.1735   -0.2650 H   0  0  0  0  0  0  0  0  0  0  0  0
   -2.2249    0.6014    1.2134 C   0  0  0  0  0  0  0  0  0  0  0  0
   -2.7904   -0.4663    1.1558 O   0  0  0  0  0  0  0  0  0  0  0  0
   -2.8045    1.7553    1.5877 O   0  0  0  0  0  0  0  0  0  0  0  0
   -3.7353    1.5626    1.7953 H   0  0  0  0  0  0  0  0  0  0  0  0
    6.2546    3.1692    1.3913 C   0  0  0  0  0  0  0  0  0  0  0  0
    7.2036    3.0165    2.1240 O   0  0  0  0  0  0  0  0  0  0  0  0
    5.8611    4.3401    0.8678 O   0  0  0  0  0  0  0  0  0  0  0  0
    6.4753    5.0285    1.1780 H   0  0  0  0  0  0  0  0  0  0  0  0
  1  7  1  0  0  0  0
  1  6  2  0  0  0  0
  2  1  1  0  0  0  0
  3  2  2  0  0  0  0
  3  4  1  0  0  0  0
  4  5  2  0  0  0  0
  5  6  1  0  0  0  0
  5 22  1  0  0  0  0
  6  8  1  0  0  0  0
  9  4  1  0  0  0  0
 10 11  1  0  0  0  0
 10  3  1  0  0  0  0
 11 12  1  0  0  0  0
 12 13  2  0  0  0  0
 13 15  1  0  0  0  0
 13 16  1  0  0  0  0
 14 18  1  6  0  0  0
 14 17  1  0  0  0  0
 14  2  1  0  0  0  0
 14 12  1  0  0  0  0
 15 20  1  0  0  0  0
 17 19  2  0  0  0  0
 19 26  1  0  0  0  0
 19 15  1  0  0  0  0
 21 17  1  0  0  0  0
 22 24  1  0  0  0  0
 23 22  2  0  0  0  0
 24 25  1  0  0  0  0
 26 27  2  0  0  0  0
 28 29  1  0  0  0  0
 28 26  1  0  0  0  0
M  RAD  3  10   2  11   2  15   2
M  END
