Coordinates from ORCA-job 1g-Schema6-R11-K+-B3LYPG-6-31G_dp-scan-d49-09-n400
 OpenBabel08281819543D

 29 29  0  0  0  0  0  0  0  0999 V2000
   -0.8602    1.7743   -1.7229 C   0  0  0  0  0  0  0  0  0  0  0  0
    0.3363    1.4695   -1.1202 C   0  0  0  0  0  0  0  0  0  0  0  0
    0.6674    1.1228    0.0406 C   0  0  0  0  0  0  0  0  0  0  0  0
   -0.2982    0.9886    1.0422 C   0  0  0  0  0  0  0  0  0  0  0  0
   -1.6077    1.2698    0.5857 C   0  0  0  0  0  0  0  0  0  0  0  0
   -1.8755    1.6492   -0.7478 C   0  0  0  0  0  0  0  0  0  0  0  0
   -1.0494    2.0680   -2.7470 H   0  0  0  0  0  0  0  0  0  0  0  0
   -2.9000    1.8575   -1.0389 H   0  0  0  0  0  0  0  0  0  0  0  0
   -0.1334    0.7024    2.0746 H   0  0  0  0  0  0  0  0  0  0  0  0
    2.6085   -1.5724   -0.1710 N   0  0  0  0  0  0  0  0  0  0  0  0
    3.4552   -0.9331    0.1715 N   0  0  0  0  0  0  0  0  0  0  0  0
    4.4608   -0.0918    0.5951 C   0  0  0  0  0  0  0  0  0  0  0  0
    5.7348   -0.6406    0.8495 C   0  0  0  0  0  0  0  0  0  0  0  0
    4.1362    1.2713    0.7460 C   0  0  0  0  0  0  0  0  0  0  0  0
    6.7187    0.2349    1.2756 C   0  0  0  0  0  0  0  0  0  0  0  0
    5.9261   -1.6993    0.7145 H   0  0  0  0  0  0  0  0  0  0  0  0
    5.1504    2.1149    1.1759 C   0  0  0  0  0  0  0  0  0  0  0  0
    3.1294    1.6180    0.5282 H   0  0  0  0  0  0  0  0  0  0  0  0
    6.4311    1.6013    1.4384 C   0  0  0  0  0  0  0  0  0  0  0  0
    7.7226   -0.1142    1.4911 H   0  0  0  0  0  0  0  0  0  0  0  0
    4.9552    3.1723    1.3107 H   0  0  0  0  0  0  0  0  0  0  0  0
   -2.7034    1.1433    1.5983 C   0  0  0  0  0  0  0  0  0  0  0  0
   -2.5222    0.8138    2.7513 O   0  0  0  0  0  0  0  0  0  0  0  0
   -3.9199    1.4342    1.0930 O   0  0  0  0  0  0  0  0  0  0  0  0
   -4.5590    1.3253    1.8177 H   0  0  0  0  0  0  0  0  0  0  0  0
    7.5615    2.4827    1.9060 C   0  0  0  0  0  0  0  0  0  0  0  0
    8.6688    2.0542    2.1331 O   0  0  0  0  0  0  0  0  0  0  0  0
    7.1846    3.7628    2.0305 O   0  0  0  0  0  0  0  0  0  0  0  0
    7.9538    4.2757    2.3354 H   0  0  0  0  0  0  0  0  0  0  0  0
  1  2  2  0  0  0  0
  1  6  1  0  0  0  0
  2  3  1  0  0  0  0
  3  4  2  0  0  0  0
  4  9  1  0  0  0  0
  5  4  1  0  0  0  0
  5 22  1  0  0  0  0
  6  5  2  0  0  0  0
  7  1  1  0  0  0  0
  8  6  1  0  0  0  0
 10 11  1  0  0  0  0
 11 12  1  0  0  0  0
 12 14  2  0  0  0  0
 12 13  1  0  0  0  0
 13 15  2  0  0  0  0
 14 17  1  0  0  0  0
 15 19  1  0  0  0  0
 15 20  1  0  0  0  0
 16 13  1  0  0  0  0
 17 21  1  0  0  0  0
 17 19  2  0  0  0  0
 18 14  1  0  0  0  0
 19 26  1  0  0  0  0
 22 23  2  0  0  0  0
 24 22  1  0  0  0  0
 24 25  1  0  0  0  0
 26 28  1  0  0  0  0
 26 27  2  0  0  0  0
 28 29  1  0  0  0  0
M  RAD  4   2   2   3   2  10   3  11   2
M  END
