Coordinates from ORCA-job 1g-Schema6-R11-K+-B3LYPG-6-31G_dp-scan-d49-09-n400
 OpenBabel08281819543D

 29 31  0  0  0  0  0  0  0  0999 V2000
    0.9135    2.4572    0.5366 C   0  0  0  0  0  0  0  0  0  0  0  0
    1.8982    1.4758    0.5864 C   0  0  0  0  0  0  0  0  0  0  0  0
    1.5480   -0.0017    0.6296 C   0  0  0  0  0  0  0  0  0  0  0  0
    0.1128   -0.3104    0.8838 C   0  0  0  0  0  0  0  0  0  0  0  0
   -0.8126    0.6872    0.7973 C   0  0  0  0  0  0  0  0  0  0  0  0
   -0.4146    2.0561    0.6220 C   0  0  0  0  0  0  0  0  0  0  0  0
    1.1652    3.5123    0.4999 H   0  0  0  0  0  0  0  0  0  0  0  0
   -1.1986    2.8063    0.6026 H   0  0  0  0  0  0  0  0  0  0  0  0
   -0.1888   -1.3471    1.0010 H   0  0  0  0  0  0  0  0  0  0  0  0
    1.9690   -0.8578   -0.5858 N   0  0  0  0  0  0  0  0  0  0  0  0
    2.4632   -0.6752    0.8107 N   0  0  0  0  0  0  0  0  0  0  0  0
    3.6677    0.0934    0.9039 C   0  0  0  0  0  0  0  0  0  0  0  0
    4.9731   -0.3434    1.0376 C   0  0  0  0  0  0  0  0  0  0  0  0
    3.3117    1.4692    0.7806 C   0  0  0  0  0  0  0  0  0  0  0  0
    5.9481    0.6542    1.0879 C   0  0  0  0  0  0  0  0  0  0  0  0
    5.2208   -1.3954    1.1219 H   0  0  0  0  0  0  0  0  0  0  0  0
    4.3113    2.4586    0.8380 C   0  0  0  0  0  0  0  0  0  0  0  0
    2.5256   -0.1981   -1.1563 H   0  0  0  0  0  0  0  0  0  0  0  0
    5.6258    2.0311    0.9931 C   0  0  0  0  0  0  0  0  0  0  0  0
    6.9948    0.3967    1.2151 H   0  0  0  0  0  0  0  0  0  0  0  0
    4.0809    3.5160    0.7731 H   0  0  0  0  0  0  0  0  0  0  0  0
   -2.2621    0.3015    0.9363 C   0  0  0  0  0  0  0  0  0  0  0  0
   -2.6284   -0.8384    1.0939 O   0  0  0  0  0  0  0  0  0  0  0  0
   -3.0720    1.3711    0.8671 O   0  0  0  0  0  0  0  0  0  0  0  0
   -3.9883    1.0588    0.9686 H   0  0  0  0  0  0  0  0  0  0  0  0
    6.7712    3.0003    1.0748 C   0  0  0  0  0  0  0  0  0  0  0  0
    7.9228    2.6551    1.2056 O   0  0  0  0  0  0  0  0  0  0  0  0
    6.3623    4.2783    0.9850 O   0  0  0  0  0  0  0  0  0  0  0  0
    7.1518    4.8436    1.0466 H   0  0  0  0  0  0  0  0  0  0  0  0
  1  2  2  0  0  0  0
  1  6  1  0  0  0  0
  2  3  1  0  0  0  0
  2 14  1  0  0  0  0
  3 11  1  0  0  0  0
  3  4  2  0  0  0  0
  4  9  1  0  0  0  0
  5  4  1  0  0  0  0
  5 22  1  0  0  0  0
  6  5  2  0  0  0  0
  7  1  1  0  0  0  0
  8  6  1  0  0  0  0
 10 11  1  0  0  0  0
 11 12  1  0  0  0  0
 12 13  2  0  0  0  0
 13 15  1  0  0  0  0
 13 16  1  0  0  0  0
 14 17  2  0  0  0  0
 14 12  1  0  0  0  0
 15 20  1  0  0  0  0
 17 19  1  0  0  0  0
 18 10  1  0  0  0  0
 19 26  1  0  0  0  0
 19 15  2  0  0  0  0
 21 17  1  0  0  0  0
 22 23  2  0  0  0  0
 24 22  1  0  0  0  0
 24 25  1  0  0  0  0
 26 27  2  0  0  0  0
 28 29  1  0  0  0  0
 28 26  1  0  0  0  0
M  RAD  1  10   2
M  END
