Coordinates from ORCA-job 1g-Schema6-R11-K+-B3LYPG-6-31G_dp-scan-d49-09-n400
 OpenBabel08281819543D

 29 29  0  0  0  0  0  0  0  0999 V2000
   -0.9441    1.9621   -1.7546 C   0  0  0  0  0  0  0  0  0  0  0  0
    0.3063    1.6959   -1.2536 C   0  0  0  0  0  0  0  0  0  0  0  0
    0.7478    1.3277   -0.1369 C   0  0  0  0  0  0  0  0  0  0  0  0
   -0.1340    1.1171    0.9272 C   0  0  0  0  0  0  0  0  0  0  0  0
   -1.4872    1.3481    0.5834 C   0  0  0  0  0  0  0  0  0  0  0  0
   -1.8750    1.7571   -0.7109 C   0  0  0  0  0  0  0  0  0  0  0  0
   -1.2238    2.2798   -2.7503 H   0  0  0  0  0  0  0  0  0  0  0  0
   -2.9273    1.9263   -0.9158 H   0  0  0  0  0  0  0  0  0  0  0  0
    0.1221    0.8090    1.9346 H   0  0  0  0  0  0  0  0  0  0  0  0
    2.7813   -1.8617   -0.2808 N   0  0  0  0  0  0  0  0  0  0  0  0
    3.5454   -1.1396    0.0903 N   0  0  0  0  0  0  0  0  0  0  0  0
    4.4777   -0.2347    0.5489 C   0  0  0  0  0  0  0  0  0  0  0  0
    5.7276   -0.7256    0.9832 C   0  0  0  0  0  0  0  0  0  0  0  0
    4.1108    1.1256    0.5536 C   0  0  0  0  0  0  0  0  0  0  0  0
    6.6396    0.2083    1.4426 C   0  0  0  0  0  0  0  0  0  0  0  0
    5.9543   -1.7858    0.9556 H   0  0  0  0  0  0  0  0  0  0  0  0
    5.0538    2.0287    1.0234 C   0  0  0  0  0  0  0  0  0  0  0  0
    3.1231    1.4249    0.2067 H   0  0  0  0  0  0  0  0  0  0  0  0
    6.3075    1.5746    1.4640 C   0  0  0  0  0  0  0  0  0  0  0  0
    7.6202   -0.0941    1.7934 H   0  0  0  0  0  0  0  0  0  0  0  0
    4.8227    3.0872    1.0515 H   0  0  0  0  0  0  0  0  0  0  0  0
   -2.4929    1.1338    1.6709 C   0  0  0  0  0  0  0  0  0  0  0  0
   -2.2082    0.7658    2.7914 O   0  0  0  0  0  0  0  0  0  0  0  0
   -3.7570    1.3890    1.2748 O   0  0  0  0  0  0  0  0  0  0  0  0
   -4.3307    1.2226    2.0420 H   0  0  0  0  0  0  0  0  0  0  0  0
    7.3599    2.5216    1.9827 C   0  0  0  0  0  0  0  0  0  0  0  0
    8.4435    2.1437    2.3635 O   0  0  0  0  0  0  0  0  0  0  0  0
    6.9449    3.7955    1.9650 O   0  0  0  0  0  0  0  0  0  0  0  0
    7.6643    4.3524    2.3115 H   0  0  0  0  0  0  0  0  0  0  0  0
  1  2  2  0  0  0  0
  1  6  1  0  0  0  0
  2  3  1  0  0  0  0
  3  4  2  0  0  0  0
  4  9  1  0  0  0  0
  5  4  1  0  0  0  0
  5 22  1  0  0  0  0
  6  5  2  0  0  0  0
  7  1  1  0  0  0  0
  8  6  1  0  0  0  0
 10 11  1  0  0  0  0
 11 12  1  0  0  0  0
 12 14  2  0  0  0  0
 12 13  1  0  0  0  0
 13 15  2  0  0  0  0
 14 17  1  0  0  0  0
 15 19  1  0  0  0  0
 15 20  1  0  0  0  0
 16 13  1  0  0  0  0
 17 21  1  0  0  0  0
 17 19  2  0  0  0  0
 18 14  1  0  0  0  0
 19 26  1  0  0  0  0
 22 23  2  0  0  0  0
 24 22  1  0  0  0  0
 24 25  1  0  0  0  0
 26 27  2  0  0  0  0
 28 26  1  0  0  0  0
 28 29  1  0  0  0  0
M  RAD  4   2   2   3   2  10   3  11   2
M  END
