Coordinates from ORCA-job 1g-Schema6-R11-K+-B3LYPG-6-31G_dp-scan-d49-09-n400
 OpenBabel08281819543D

 29 29  0  0  0  0  0  0  0  0999 V2000
   -0.9648    1.5630   -1.7999 C   0  0  0  0  0  0  0  0  0  0  0  0
    0.1667    1.0031   -1.2653 C   0  0  0  0  0  0  0  0  0  0  0  0
    0.4917    0.5652   -0.1310 C   0  0  0  0  0  0  0  0  0  0  0  0
   -0.4353    0.5999    0.9156 C   0  0  0  0  0  0  0  0  0  0  0  0
   -1.6789    1.1594    0.5399 C   0  0  0  0  0  0  0  0  0  0  0  0
   -1.9325    1.6214   -0.7698 C   0  0  0  0  0  0  0  0  0  0  0  0
   -1.1419    1.9131   -2.8083 H   0  0  0  0  0  0  0  0  0  0  0  0
   -2.9067    2.0394   -1.0014 H   0  0  0  0  0  0  0  0  0  0  0  0
   -0.2832    0.2477    1.9294 H   0  0  0  0  0  0  0  0  0  0  0  0
    2.5015   -1.2791   -0.1431 N   0  0  0  0  0  0  0  0  0  0  0  0
    3.4415   -0.7737    0.1959 N   0  0  0  0  0  0  0  0  0  0  0  0
    4.4826    0.0253    0.6220 C   0  0  0  0  0  0  0  0  0  0  0  0
    5.7513   -0.5522    0.8155 C   0  0  0  0  0  0  0  0  0  0  0  0
    4.1922    1.3869    0.8377 C   0  0  0  0  0  0  0  0  0  0  0  0
    6.7667    0.2870    1.2455 C   0  0  0  0  0  0  0  0  0  0  0  0
    5.9173   -1.6079    0.6324 H   0  0  0  0  0  0  0  0  0  0  0  0
    5.2331    2.1962    1.2689 C   0  0  0  0  0  0  0  0  0  0  0  0
    3.1902    1.7668    0.6671 H   0  0  0  0  0  0  0  0  0  0  0  0
    6.5116    1.6496    1.4711 C   0  0  0  0  0  0  0  0  0  0  0  0
    7.7696   -0.0889    1.4158 H   0  0  0  0  0  0  0  0  0  0  0  0
    5.0625    3.2505    1.4520 H   0  0  0  0  0  0  0  0  0  0  0  0
   -2.7219    1.2353    1.6124 C   0  0  0  0  0  0  0  0  0  0  0  0
   -2.5424    0.8670    2.7534 O   0  0  0  0  0  0  0  0  0  0  0  0
   -3.8853    1.7572    1.1734 O   0  0  0  0  0  0  0  0  0  0  0  0
   -4.4961    1.7631    1.9301 H   0  0  0  0  0  0  0  0  0  0  0  0
    7.6712    2.4914    1.9377 C   0  0  0  0  0  0  0  0  0  0  0  0
    8.7777    2.0372    2.1130 O   0  0  0  0  0  0  0  0  0  0  0  0
    7.3226    3.7731    2.1235 O   0  0  0  0  0  0  0  0  0  0  0  0
    8.1114    4.2583    2.4235 H   0  0  0  0  0  0  0  0  0  0  0  0
  1  2  2  0  0  0  0
  1  6  1  0  0  0  0
  2  3  1  0  0  0  0
  3  4  2  0  0  0  0
  4  9  1  0  0  0  0
  5  4  1  0  0  0  0
  5 22  1  0  0  0  0
  6  5  2  0  0  0  0
  7  1  1  0  0  0  0
  8  6  1  0  0  0  0
 10 11  1  0  0  0  0
 11 12  1  0  0  0  0
 12 13  2  0  0  0  0
 12 14  1  0  0  0  0
 13 15  1  0  0  0  0
 14 17  2  0  0  0  0
 15 20  1  0  0  0  0
 15 19  2  0  0  0  0
 16 13  1  0  0  0  0
 17 21  1  0  0  0  0
 17 19  1  0  0  0  0
 18 14  1  0  0  0  0
 19 26  1  0  0  0  0
 22 23  2  0  0  0  0
 24 22  1  0  0  0  0
 24 25  1  0  0  0  0
 26 27  2  0  0  0  0
 26 28  1  0  0  0  0
 28 29  1  0  0  0  0
M  RAD  4   2   2   3   2  10   3  11   2
M  END
