Coordinates from ORCA-job 1g-Schema6-R11-K+-B3LYPG-6-31G_dp-scan-d49-09-n400
 OpenBabel08281819543D

 29 29  0  0  0  0  0  0  0  0999 V2000
   -0.8669    1.8709   -1.7168 C   0  0  0  0  0  0  0  0  0  0  0  0
    0.3372    1.5422   -1.1429 C   0  0  0  0  0  0  0  0  0  0  0  0
    0.6858    1.1525   -0.0009 C   0  0  0  0  0  0  0  0  0  0  0  0
   -0.2664    0.9852    1.0087 C   0  0  0  0  0  0  0  0  0  0  0  0
   -1.5821    1.2843    0.5822 C   0  0  0  0  0  0  0  0  0  0  0  0
   -1.8685    1.7120   -0.7326 C   0  0  0  0  0  0  0  0  0  0  0  0
   -1.0700    2.2012   -2.7270 H   0  0  0  0  0  0  0  0  0  0  0  0
   -2.8966    1.9321   -1.0014 H   0  0  0  0  0  0  0  0  0  0  0  0
   -0.0878    0.6628    2.0280 H   0  0  0  0  0  0  0  0  0  0  0  0
    2.6564   -1.6765   -0.1548 N   0  0  0  0  0  0  0  0  0  0  0  0
    3.4805   -1.0067    0.1843 N   0  0  0  0  0  0  0  0  0  0  0  0
    4.4669   -0.1406    0.6032 C   0  0  0  0  0  0  0  0  0  0  0  0
    5.7401   -0.6685    0.9037 C   0  0  0  0  0  0  0  0  0  0  0  0
    4.1265    1.2230    0.7029 C   0  0  0  0  0  0  0  0  0  0  0  0
    6.7059    0.2294    1.3241 C   0  0  0  0  0  0  0  0  0  0  0  0
    5.9441   -1.7291    0.8070 H   0  0  0  0  0  0  0  0  0  0  0  0
    5.1230    2.0895    1.1287 C   0  0  0  0  0  0  0  0  0  0  0  0
    3.1211    1.5523    0.4524 H   0  0  0  0  0  0  0  0  0  0  0  0
    6.4020    1.5975    1.4368 C   0  0  0  0  0  0  0  0  0  0  0  0
    7.7076   -0.1031    1.5733 H   0  0  0  0  0  0  0  0  0  0  0  0
    4.9148    3.1487    1.2252 H   0  0  0  0  0  0  0  0  0  0  0  0
   -2.6629    1.1222    1.6054 C   0  0  0  0  0  0  0  0  0  0  0  0
   -2.4656    0.7503    2.7428 O   0  0  0  0  0  0  0  0  0  0  0  0
   -3.8864    1.4315    1.1287 O   0  0  0  0  0  0  0  0  0  0  0  0
   -4.5149    1.2962    1.8583 H   0  0  0  0  0  0  0  0  0  0  0  0
    7.5127    2.5045    1.9026 C   0  0  0  0  0  0  0  0  0  0  0  0
    8.6181    2.0943    2.1697 O   0  0  0  0  0  0  0  0  0  0  0  0
    7.1206    3.7837    1.9790 O   0  0  0  0  0  0  0  0  0  0  0  0
    7.8772    4.3135    2.2864 H   0  0  0  0  0  0  0  0  0  0  0  0
  1  2  2  0  0  0  0
  1  6  1  0  0  0  0
  2  3  1  0  0  0  0
  3  4  2  0  0  0  0
  4  9  1  0  0  0  0
  5  4  1  0  0  0  0
  5 22  1  0  0  0  0
  6  5  2  0  0  0  0
  7  1  1  0  0  0  0
  8  6  1  0  0  0  0
 10 11  1  0  0  0  0
 11 12  1  0  0  0  0
 12 14  2  0  0  0  0
 12 13  1  0  0  0  0
 13 15  2  0  0  0  0
 14 17  1  0  0  0  0
 15 19  1  0  0  0  0
 15 20  1  0  0  0  0
 16 13  1  0  0  0  0
 17 21  1  0  0  0  0
 17 19  2  0  0  0  0
 18 14  1  0  0  0  0
 19 26  1  0  0  0  0
 22 23  2  0  0  0  0
 24 22  1  0  0  0  0
 24 25  1  0  0  0  0
 26 28  1  0  0  0  0
 26 27  2  0  0  0  0
 28 29  1  0  0  0  0
M  RAD  4   2   2   3   2  10   3  11   2
M  END
