Coordinates from ORCA-job 1g-Schema6-R11-K+-B3LYPG-6-31G_dp-scan-d49-09-n400
 OpenBabel08281819543D

 29 31  0  0  0  0  0  0  0  0999 V2000
    0.9057    2.5714    0.8987 C   0  0  0  0  0  0  0  0  0  0  0  0
    1.8890    1.6000    0.8016 C   0  0  0  0  0  0  0  0  0  0  0  0
    1.5702    0.1384    0.6283 C   0  0  0  0  0  0  0  0  0  0  0  0
    0.1404   -0.1754    0.5725 C   0  0  0  0  0  0  0  0  0  0  0  0
   -0.8011    0.8141    0.6715 C   0  0  0  0  0  0  0  0  0  0  0  0
   -0.4280    2.1810    0.8335 C   0  0  0  0  0  0  0  0  0  0  0  0
    1.1686    3.6166    1.0244 H   0  0  0  0  0  0  0  0  0  0  0  0
   -1.2147    2.9240    0.9072 H   0  0  0  0  0  0  0  0  0  0  0  0
   -0.2126   -1.1957    0.4511 H   0  0  0  0  0  0  0  0  0  0  0  0
    2.5647   -1.7473    0.4280 N   0  0  0  0  0  0  0  0  0  0  0  0
    2.3318   -0.4438    0.5738 N   0  0  0  0  0  0  0  0  0  0  0  0
    3.6865    0.2797    0.6767 C   0  0  0  0  0  0  0  0  0  0  0  0
    4.9585   -0.2214    0.6368 C   0  0  0  0  0  0  0  0  0  0  0  0
    3.3279    1.6178    0.8253 C   0  0  0  0  0  0  0  0  0  0  0  0
    5.9648    0.7551    0.7627 C   0  0  0  0  0  0  0  0  0  0  0  0
    5.1705   -1.2767    0.5171 H   0  0  0  0  0  0  0  0  0  0  0  0
    4.3370    2.5778    0.9499 C   0  0  0  0  0  0  0  0  0  0  0  0
    1.6536   -2.2186    0.3586 H   0  0  0  0  0  0  0  0  0  0  0  0
    5.6624    2.1192    0.9154 C   0  0  0  0  0  0  0  0  0  0  0  0
    7.0111    0.4677    0.7439 H   0  0  0  0  0  0  0  0  0  0  0  0
    4.1252    3.6339    1.0695 H   0  0  0  0  0  0  0  0  0  0  0  0
   -2.2433    0.3861    0.6014 C   0  0  0  0  0  0  0  0  0  0  0  0
   -2.5800   -0.7668    0.4635 O   0  0  0  0  0  0  0  0  0  0  0  0
   -3.0808    1.4287    0.7040 O   0  0  0  0  0  0  0  0  0  0  0  0
   -3.9917    1.0895    0.6494 H   0  0  0  0  0  0  0  0  0  0  0  0
    6.8242    3.0634    1.0392 C   0  0  0  0  0  0  0  0  0  0  0  0
    7.9791    2.7065    1.0119 O   0  0  0  0  0  0  0  0  0  0  0  0
    6.4264    4.3415    1.1836 O   0  0  0  0  0  0  0  0  0  0  0  0
    7.2275    4.8884    1.2577 H   0  0  0  0  0  0  0  0  0  0  0  0
  1  7  1  0  0  0  0
  2 14  1  0  0  0  0
  2  1  2  0  0  0  0
  3  2  1  0  0  0  0
  4  3  2  0  0  0  0
  4  5  1  0  0  0  0
  5  6  2  0  0  0  0
  6  1  1  0  0  0  0
  6  8  1  0  0  0  0
  9  4  1  0  0  0  0
 10 11  1  0  0  0  0
 11  3  1  0  0  0  0
 11 12  1  0  0  0  0
 12 14  1  0  0  0  0
 13 12  2  0  0  0  0
 13 15  1  0  0  0  0
 14 17  2  0  0  0  0
 15 19  2  0  0  0  0
 16 13  1  0  0  0  0
 17 21  1  0  0  0  0
 18 10  1  0  0  0  0
 19 17  1  0  0  0  0
 19 26  1  0  0  0  0
 20 15  1  0  0  0  0
 22  5  1  0  0  0  0
 22 24  1  0  0  0  0
 23 22  2  0  0  0  0
 25 24  1  0  0  0  0
 26 28  1  0  0  0  0
 27 26  2  0  0  0  0
 28 29  1  0  0  0  0
M  RAD  1  10   2
M  END
