Coordinates from ORCA-job 1g-Schema6-R11-K+-B3LYPG-6-31G_dp-scan-d49-09-n400
 OpenBabel08281819543D

 29 29  0  0  0  0  0  0  0  0999 V2000
   -0.8924    1.9897   -1.7324 C   0  0  0  0  0  0  0  0  0  0  0  0
    0.3351    1.6190   -1.2407 C   0  0  0  0  0  0  0  0  0  0  0  0
    0.7528    1.2313   -0.1217 C   0  0  0  0  0  0  0  0  0  0  0  0
   -0.1324    1.1107    0.9530 C   0  0  0  0  0  0  0  0  0  0  0  0
   -1.4632    1.4573    0.6187 C   0  0  0  0  0  0  0  0  0  0  0  0
   -1.8270    1.8818   -0.6777 C   0  0  0  0  0  0  0  0  0  0  0  0
   -1.1539    2.3158   -2.7305 H   0  0  0  0  0  0  0  0  0  0  0  0
   -2.8624    2.1388   -0.8758 H   0  0  0  0  0  0  0  0  0  0  0  0
    0.1067    0.7921    1.9611 H   0  0  0  0  0  0  0  0  0  0  0  0
    3.1900   -2.2777   -0.4154 N   0  0  0  0  0  0  0  0  0  0  0  0
    3.8390   -1.4628   -0.0174 N   0  0  0  0  0  0  0  0  0  0  0  0
    4.6360   -0.4531    0.4748 C   0  0  0  0  0  0  0  0  0  0  0  0
    5.9510   -0.7779    0.8721 C   0  0  0  0  0  0  0  0  0  0  0  0
    4.0767    0.8383    0.5488 C   0  0  0  0  0  0  0  0  0  0  0  0
    6.7272    0.2556    1.3660 C   0  0  0  0  0  0  0  0  0  0  0  0
    6.3270   -1.7918    0.7912 H   0  0  0  0  0  0  0  0  0  0  0  0
    4.8893    1.8452    1.0505 C   0  0  0  0  0  0  0  0  0  0  0  0
    3.0497    1.0168    0.2282 H   0  0  0  0  0  0  0  0  0  0  0  0
    6.2026    1.5574    1.4556 C   0  0  0  0  0  0  0  0  0  0  0  0
    7.7468    0.0823    1.6919 H   0  0  0  0  0  0  0  0  0  0  0  0
    4.5086    2.8567    1.1315 H   0  0  0  0  0  0  0  0  0  0  0  0
   -2.4720    1.3500    1.7187 C   0  0  0  0  0  0  0  0  0  0  0  0
   -2.2080    0.9852    2.8452 O   0  0  0  0  0  0  0  0  0  0  0  0
   -3.7148    1.7009    1.3274 O   0  0  0  0  0  0  0  0  0  0  0  0
   -4.2920    1.5994    2.1033 H   0  0  0  0  0  0  0  0  0  0  0  0
    7.1172    2.6219    2.0069 C   0  0  0  0  0  0  0  0  0  0  0  0
    8.2485    2.3867    2.3622 O   0  0  0  0  0  0  0  0  0  0  0  0
    6.5246    3.8231    2.0488 O   0  0  0  0  0  0  0  0  0  0  0  0
    7.1619    4.4623    2.4131 H   0  0  0  0  0  0  0  0  0  0  0  0
  1  2  2  0  0  0  0
  1  6  1  0  0  0  0
  2  3  1  0  0  0  0
  3  4  2  0  0  0  0
  4  9  1  0  0  0  0
  5  4  1  0  0  0  0
  5 22  1  0  0  0  0
  6  5  2  0  0  0  0
  7  1  1  0  0  0  0
  8  6  1  0  0  0  0
 10 11  1  0  0  0  0
 11 12  1  0  0  0  0
 12 14  2  0  0  0  0
 12 13  1  0  0  0  0
 13 15  2  0  0  0  0
 14 17  1  0  0  0  0
 15 19  1  0  0  0  0
 15 20  1  0  0  0  0
 16 13  1  0  0  0  0
 17 21  1  0  0  0  0
 17 19  2  0  0  0  0
 18 14  1  0  0  0  0
 19 26  1  0  0  0  0
 22 23  2  0  0  0  0
 24 22  1  0  0  0  0
 24 25  1  0  0  0  0
 26 28  1  0  0  0  0
 26 27  2  0  0  0  0
 28 29  1  0  0  0  0
M  RAD  4   2   2   3   2  10   3  11   2
M  END
