Coordinates from ORCA-job 1g-Schema6-R11-K+-B3LYPG-6-31G_dp-scan-d49-09-n400
 OpenBabel08281819543D

 29 30  0  0  0  0  0  0  0  0999 V2000
   -0.7568    1.5052   -1.8014 C   0  0  0  0  0  0  0  0  0  0  0  0
    0.2638    0.6268   -1.6934 C   0  0  0  0  0  0  0  0  0  0  0  0
    0.9663    0.0496   -0.7594 C   0  0  0  0  0  0  0  0  0  0  0  0
    0.4346    0.2778    0.5308 C   0  0  0  0  0  0  0  0  0  0  0  0
   -0.6832    1.1174    0.6357 C   0  0  0  0  0  0  0  0  0  0  0  0
   -1.2753    1.7083   -0.4957 C   0  0  0  0  0  0  0  0  0  0  0  0
   -1.2046    1.9203   -2.6962 H   0  0  0  0  0  0  0  0  0  0  0  0
   -2.1782    2.3030   -0.3926 H   0  0  0  0  0  0  0  0  0  0  0  0
    0.8923   -0.1405    1.4231 H   0  0  0  0  0  0  0  0  0  0  0  0
    2.1312   -1.0821   -0.9748 N   0  0  0  0  0  0  0  0  0  0  0  0
    3.2180   -1.0108   -0.4850 N   0  0  0  0  0  0  0  0  0  0  0  0
    3.9861   -0.0631    0.2048 C   0  0  0  0  0  0  0  0  0  0  0  0
    4.9901   -0.5779    1.0439 C   0  0  0  0  0  0  0  0  0  0  0  0
    3.8187    1.3214    0.0063 C   0  0  0  0  0  0  0  0  0  0  0  0
    5.7915    0.3092    1.7476 C   0  0  0  0  0  0  0  0  0  0  0  0
    5.1100   -1.6518    1.1381 H   0  0  0  0  0  0  0  0  0  0  0  0
    4.6502    2.1920    0.6959 C   0  0  0  0  0  0  0  0  0  0  0  0
    3.0803    1.6992   -0.6906 H   0  0  0  0  0  0  0  0  0  0  0  0
    5.6259    1.6904    1.5741 C   0  0  0  0  0  0  0  0  0  0  0  0
    6.5637   -0.0430    2.4225 H   0  0  0  0  0  0  0  0  0  0  0  0
    4.5560    3.2627    0.5559 H   0  0  0  0  0  0  0  0  0  0  0  0
   -1.2069    1.3614    2.0240 C   0  0  0  0  0  0  0  0  0  0  0  0
   -0.6823    0.9053    3.0140 O   0  0  0  0  0  0  0  0  0  0  0  0
   -2.3070    2.1308    2.0236 O   0  0  0  0  0  0  0  0  0  0  0  0
   -2.5932    2.2412    2.9472 H   0  0  0  0  0  0  0  0  0  0  0  0
    6.5422    2.5976    2.3447 C   0  0  0  0  0  0  0  0  0  0  0  0
    7.3866    2.1914    3.1102 O   0  0  0  0  0  0  0  0  0  0  0  0
    6.3112    3.8977    2.0869 O   0  0  0  0  0  0  0  0  0  0  0  0
    6.9413    4.4156    2.6172 H   0  0  0  0  0  0  0  0  0  0  0  0
  1  2  2  0  0  0  0
  1  6  1  0  0  0  0
  2  3  1  0  0  0  0
  3  4  2  0  0  0  0
  4  5  1  0  0  0  0
  4  9  1  0  0  0  0
  5 22  1  0  0  0  0
  6  8  1  0  0  0  0
  6  5  2  0  0  0  0
  7  1  1  0  0  0  0
 10  3  1  0  0  0  0
 10 11  2  0  0  0  0
 11 12  1  0  0  0  0
 12 13  1  0  0  0  0
 13 16  1  0  0  0  0
 13 15  2  0  0  0  0
 14 12  2  0  0  0  0
 14 17  1  0  0  0  0
 15 20  1  0  0  0  0
 17 19  2  0  0  0  0
 18 14  1  0  0  0  0
 19 15  1  0  0  0  0
 19 26  1  0  0  0  0
 21 17  1  0  0  0  0
 22 23  2  0  0  0  0
 24 22  1  0  0  0  0
 24 25  1  0  0  0  0
 26 27  2  0  0  0  0
 28 26  1  0  0  0  0
 28 29  1  0  0  0  0
M  RAD  1   2   2
M  END
