Coordinates from ORCA-job 1g-Schema6-R11-K+-B3LYPG-6-31G_dp-scan-d49-09-n400
 OpenBabel08281819543D

 29 29  0  0  0  0  0  0  0  0999 V2000
   -0.7703    2.1129   -1.6462 C   0  0  0  0  0  0  0  0  0  0  0  0
    0.4029    1.5953   -1.1507 C   0  0  0  0  0  0  0  0  0  0  0  0
    0.7440    1.1392   -0.0323 C   0  0  0  0  0  0  0  0  0  0  0  0
   -0.1620    1.0884    1.0278 C   0  0  0  0  0  0  0  0  0  0  0  0
   -1.4391    1.5917    0.6817 C   0  0  0  0  0  0  0  0  0  0  0  0
   -1.7295    2.0854   -0.6090 C   0  0  0  0  0  0  0  0  0  0  0  0
   -0.9782    2.4890   -2.6394 H   0  0  0  0  0  0  0  0  0  0  0  0
   -2.7266    2.4596   -0.8157 H   0  0  0  0  0  0  0  0  0  0  0  0
    0.0222    0.7183    2.0296 H   0  0  0  0  0  0  0  0  0  0  0  0
    3.7722   -2.7730   -0.4996 N   0  0  0  0  0  0  0  0  0  0  0  0
    4.2599   -1.8561   -0.0928 N   0  0  0  0  0  0  0  0  0  0  0  0
    4.8598   -0.7230    0.4096 C   0  0  0  0  0  0  0  0  0  0  0  0
    6.2154   -0.8110    0.7959 C   0  0  0  0  0  0  0  0  0  0  0  0
    4.0800    0.4468    0.5052 C   0  0  0  0  0  0  0  0  0  0  0  0
    6.7993    0.3377    1.2996 C   0  0  0  0  0  0  0  0  0  0  0  0
    6.7657   -1.7405    0.6988 H   0  0  0  0  0  0  0  0  0  0  0  0
    4.7049    1.5758    1.0160 C   0  0  0  0  0  0  0  0  0  0  0  0
    3.0351    0.4693    0.1969 H   0  0  0  0  0  0  0  0  0  0  0  0
    6.0517    1.5236    1.4097 C   0  0  0  0  0  0  0  0  0  0  0  0
    7.8361    0.3451    1.6173 H   0  0  0  0  0  0  0  0  0  0  0  0
    4.1474    2.5005    1.1112 H   0  0  0  0  0  0  0  0  0  0  0  0
   -2.4729    1.5732    1.7630 C   0  0  0  0  0  0  0  0  0  0  0  0
   -2.2709    1.1607    2.8858 O   0  0  0  0  0  0  0  0  0  0  0  0
   -3.6629    2.0675    1.3607 O   0  0  0  0  0  0  0  0  0  0  0  0
   -4.2609    2.0135    2.1254 H   0  0  0  0  0  0  0  0  0  0  0  0
    6.7667    2.7274    1.9691 C   0  0  0  0  0  0  0  0  0  0  0  0
    7.9260    2.6934    2.3098 O   0  0  0  0  0  0  0  0  0  0  0  0
    5.9698    3.8028    2.0315 O   0  0  0  0  0  0  0  0  0  0  0  0
    6.4867    4.5416    2.3983 H   0  0  0  0  0  0  0  0  0  0  0  0
  1  2  2  0  0  0  0
  1  6  1  0  0  0  0
  2  3  1  0  0  0  0
  3  4  2  0  0  0  0
  4  9  1  0  0  0  0
  5  4  1  0  0  0  0
  5 22  1  0  0  0  0
  6  5  2  0  0  0  0
  7  1  1  0  0  0  0
  8  6  1  0  0  0  0
 10 11  1  0  0  0  0
 11 12  1  0  0  0  0
 12 14  2  0  0  0  0
 12 13  1  0  0  0  0
 13 15  2  0  0  0  0
 14 17  1  0  0  0  0
 15 19  1  0  0  0  0
 15 20  1  0  0  0  0
 16 13  1  0  0  0  0
 17 21  1  0  0  0  0
 17 19  2  0  0  0  0
 18 14  1  0  0  0  0
 19 26  1  0  0  0  0
 22 23  2  0  0  0  0
 24 22  1  0  0  0  0
 24 25  1  0  0  0  0
 26 28  1  0  0  0  0
 26 27  2  0  0  0  0
 28 29  1  0  0  0  0
M  RAD  4   2   2   3   2  10   3  11   2
M  END
