Coordinates from ORCA-job 1g-Schema6-R11-K+-B3LYPG-6-31G_dp-scan-d49-09-n400
 OpenBabel08281819543D

 29 29  0  0  0  0  0  0  0  0999 V2000
   -1.0232    1.4977   -1.8645 C   0  0  0  0  0  0  0  0  0  0  0  0
    0.1180    0.9057   -1.3929 C   0  0  0  0  0  0  0  0  0  0  0  0
    0.5130    0.4756   -0.2768 C   0  0  0  0  0  0  0  0  0  0  0  0
   -0.3452    0.5633    0.8256 C   0  0  0  0  0  0  0  0  0  0  0  0
   -1.5911    1.1610    0.5249 C   0  0  0  0  0  0  0  0  0  0  0  0
   -1.9172    1.6088   -0.7733 C   0  0  0  0  0  0  0  0  0  0  0  0
   -1.2547    1.8350   -2.8661 H   0  0  0  0  0  0  0  0  0  0  0  0
   -2.8902    2.0557   -0.9486 H   0  0  0  0  0  0  0  0  0  0  0  0
   -0.1384    0.2227    1.8339 H   0  0  0  0  0  0  0  0  0  0  0  0
    2.4881   -1.2857   -0.2266 N   0  0  0  0  0  0  0  0  0  0  0  0
    3.4209   -0.7829    0.1386 N   0  0  0  0  0  0  0  0  0  0  0  0
    4.4452    0.0222    0.5943 C   0  0  0  0  0  0  0  0  0  0  0  0
    5.7119   -0.5484    0.8177 C   0  0  0  0  0  0  0  0  0  0  0  0
    4.1429    1.3814    0.8083 C   0  0  0  0  0  0  0  0  0  0  0  0
    6.7120    0.2940    1.2766 C   0  0  0  0  0  0  0  0  0  0  0  0
    5.8881   -1.6025    0.6346 H   0  0  0  0  0  0  0  0  0  0  0  0
    5.1681    2.1946    1.2689 C   0  0  0  0  0  0  0  0  0  0  0  0
    3.1439    1.7576    0.6146 H   0  0  0  0  0  0  0  0  0  0  0  0
    6.4441    1.6542    1.5013 C   0  0  0  0  0  0  0  0  0  0  0  0
    7.7122   -0.0775    1.4704 H   0  0  0  0  0  0  0  0  0  0  0  0
    4.9872    3.2472    1.4518 H   0  0  0  0  0  0  0  0  0  0  0  0
   -2.5540    1.2944    1.6645 C   0  0  0  0  0  0  0  0  0  0  0  0
   -2.3061    0.9461    2.7990 O   0  0  0  0  0  0  0  0  0  0  0  0
   -3.7270    1.8468    1.2948 O   0  0  0  0  0  0  0  0  0  0  0  0
   -4.2836    1.8903    2.0911 H   0  0  0  0  0  0  0  0  0  0  0  0
    7.5867    2.5004    2.0003 C   0  0  0  0  0  0  0  0  0  0  0  0
    8.6908    2.0518    2.2030 O   0  0  0  0  0  0  0  0  0  0  0  0
    7.2259    3.7791    2.1844 O   0  0  0  0  0  0  0  0  0  0  0  0
    8.0040    4.2668    2.5071 H   0  0  0  0  0  0  0  0  0  0  0  0
  1  2  2  0  0  0  0
  1  6  1  0  0  0  0
  2  3  1  0  0  0  0
  3  4  2  0  0  0  0
  4  9  1  0  0  0  0
  5  4  1  0  0  0  0
  5 22  1  0  0  0  0
  6  5  2  0  0  0  0
  7  1  1  0  0  0  0
  8  6  1  0  0  0  0
 10 11  1  0  0  0  0
 11 12  1  0  0  0  0
 12 14  2  0  0  0  0
 12 13  1  0  0  0  0
 13 15  2  0  0  0  0
 14 17  1  0  0  0  0
 15 20  1  0  0  0  0
 15 19  1  0  0  0  0
 16 13  1  0  0  0  0
 17 21  1  0  0  0  0
 17 19  2  0  0  0  0
 18 14  1  0  0  0  0
 19 26  1  0  0  0  0
 22 23  2  0  0  0  0
 24 22  1  0  0  0  0
 24 25  1  0  0  0  0
 26 28  1  0  0  0  0
 26 27  2  0  0  0  0
 28 29  1  0  0  0  0
M  RAD  4   2   2   3   2  10   3  11   2
M  END
