Coordinates from ORCA-job 1g-Schema6-R11-K+-B3LYPG-6-31G_dp-scan-d49-09-n400
 OpenBabel08281819543D

 29 31  0  0  1  0  0  0  0  0999 V2000
    1.2388    2.1497    0.4002 C   0  0  0  0  0  0  0  0  0  0  0  0
    1.9696    1.0432    0.0234 C   0  0  0  0  0  0  0  0  0  0  0  0
    1.3589   -0.2607    0.0338 C   0  0  0  0  0  0  0  0  0  0  0  0
    0.0052   -0.3448    0.4307 C   0  0  0  0  0  0  0  0  0  0  0  0
   -0.6972    0.7687    0.8954 C   0  0  0  0  0  0  0  0  0  0  0  0
   -0.0848    2.0208    0.8638 C   0  0  0  0  0  0  0  0  0  0  0  0
    1.7031    3.1300    0.3840 H   0  0  0  0  0  0  0  0  0  0  0  0
   -0.6247    2.8960    1.2073 H   0  0  0  0  0  0  0  0  0  0  0  0
   -0.5062   -1.3018    0.3755 H   0  0  0  0  0  0  0  0  0  0  0  0
    1.8776   -1.3676   -0.5516 N   0  0  0  0  0  0  0  0  0  0  0  0
    2.9466   -1.1109   -0.0350 N   0  0  0  0  0  0  0  0  0  0  0  0
    3.8711   -0.2651    0.2259 C   0  0  0  0  0  0  0  0  0  0  0  0
    4.8943   -0.3998    1.2147 C   0  0  0  0  0  0  0  0  0  0  0  0
    3.4601    1.0675   -0.3763 C   0  0  2  0  0  0  0  0  0  0  0  0
    5.5799    0.7195    1.5743 C   0  0  0  0  0  0  0  0  0  0  0  0
    5.0866   -1.3698    1.6574 H   0  0  0  0  0  0  0  0  0  0  0  0
    4.3251    2.2012    0.0800 C   0  0  0  0  0  0  0  0  0  0  0  0
    3.4950    1.0507   -1.4795 H   0  0  0  0  0  0  0  0  0  0  0  0
    5.3028    2.0246    0.9970 C   0  0  0  0  0  0  0  0  0  0  0  0
    6.3780    0.6695    2.3085 H   0  0  0  0  0  0  0  0  0  0  0  0
    4.1967    3.1611   -0.4095 H   0  0  0  0  0  0  0  0  0  0  0  0
   -2.1080    0.5562    1.3598 C   0  0  0  0  0  0  0  0  0  0  0  0
   -2.6462   -0.5273    1.3611 O   0  0  0  0  0  0  0  0  0  0  0  0
   -2.6850    1.6991    1.7678 O   0  0  0  0  0  0  0  0  0  0  0  0
   -3.5907    1.4869    2.0529 H   0  0  0  0  0  0  0  0  0  0  0  0
    6.1864    3.1501    1.4546 C   0  0  0  0  0  0  0  0  0  0  0  0
    7.0619    3.0013    2.2759 O   0  0  0  0  0  0  0  0  0  0  0  0
    5.8831    4.3163    0.8604 O   0  0  0  0  0  0  0  0  0  0  0  0
    6.4944    4.9905    1.2047 H   0  0  0  0  0  0  0  0  0  0  0  0
  1  6  2  0  0  0  0
  2  3  2  0  0  0  0
  2  1  1  0  0  0  0
  3  4  1  0  0  0  0
  4  5  2  0  0  0  0
  5 22  1  0  0  0  0
  6  5  1  0  0  0  0
  6  8  1  0  0  0  0
  7  1  1  0  0  0  0
  9  4  1  0  0  0  0
 10 11  1  0  0  0  0
 10  3  1  0  0  0  0
 11 12  2  0  0  0  0
 12 13  1  0  0  0  0
 13 15  2  0  0  0  0
 13 16  1  0  0  0  0
 14 18  1  6  0  0  0
 14  2  1  0  0  0  0
 14 17  1  0  0  0  0
 14 12  1  0  0  0  0
 15 20  1  0  0  0  0
 17 19  2  0  0  0  0
 19 26  1  0  0  0  0
 19 15  1  0  0  0  0
 21 17  1  0  0  0  0
 22 23  2  0  0  0  0
 22 24  1  0  0  0  0
 24 25  1  0  0  0  0
 26 27  2  0  0  0  0
 28 29  1  0  0  0  0
 28 26  1  0  0  0  0
M  RAD  1  10   2
M  END
