Coordinates from ORCA-job 1g-Schema6-R11-K+-B3LYPG-6-31G_dp-scan-d49-09-n400
 OpenBabel08281819543D

 29 29  0  0  0  0  0  0  0  0999 V2000
   -0.7916    2.0745   -1.6676 C   0  0  0  0  0  0  0  0  0  0  0  0
    0.3886    1.5781   -1.1681 C   0  0  0  0  0  0  0  0  0  0  0  0
    0.7414    1.1369   -0.0472 C   0  0  0  0  0  0  0  0  0  0  0  0
   -0.1640    1.0839    1.0143 C   0  0  0  0  0  0  0  0  0  0  0  0
   -1.4488    1.5652    0.6661 C   0  0  0  0  0  0  0  0  0  0  0  0
   -1.7486    2.0426   -0.6285 C   0  0  0  0  0  0  0  0  0  0  0  0
   -1.0060    2.4384   -2.6639 H   0  0  0  0  0  0  0  0  0  0  0  0
   -2.7514    2.4006   -0.8370 H   0  0  0  0  0  0  0  0  0  0  0  0
    0.0271    0.7262    2.0192 H   0  0  0  0  0  0  0  0  0  0  0  0
    3.6545   -2.6844   -0.4767 N   0  0  0  0  0  0  0  0  0  0  0  0
    4.1757   -1.7848   -0.0729 N   0  0  0  0  0  0  0  0  0  0  0  0
    4.8162   -0.6725    0.4258 C   0  0  0  0  0  0  0  0  0  0  0  0
    6.1741   -0.8017    0.7914 C   0  0  0  0  0  0  0  0  0  0  0  0
    4.0715    0.5190    0.5387 C   0  0  0  0  0  0  0  0  0  0  0  0
    6.7978    0.3271    1.2922 C   0  0  0  0  0  0  0  0  0  0  0  0
    6.6962   -1.7459    0.6817 H   0  0  0  0  0  0  0  0  0  0  0  0
    4.7362    1.6267    1.0459 C   0  0  0  0  0  0  0  0  0  0  0  0
    3.0227    0.5691    0.2440 H   0  0  0  0  0  0  0  0  0  0  0  0
    6.0864    1.5333    1.4195 C   0  0  0  0  0  0  0  0  0  0  0  0
    7.8389    0.3031    1.5947 H   0  0  0  0  0  0  0  0  0  0  0  0
    4.2079    2.5670    1.1541 H   0  0  0  0  0  0  0  0  0  0  0  0
   -2.4803    1.5419    1.7496 C   0  0  0  0  0  0  0  0  0  0  0  0
   -2.2704    1.1417    2.8754 O   0  0  0  0  0  0  0  0  0  0  0  0
   -3.6782    2.0142    1.3448 O   0  0  0  0  0  0  0  0  0  0  0  0
   -4.2743    1.9582    2.1109 H   0  0  0  0  0  0  0  0  0  0  0  0
    6.8440    2.7128    1.9747 C   0  0  0  0  0  0  0  0  0  0  0  0
    8.0063    2.6433    2.2997 O   0  0  0  0  0  0  0  0  0  0  0  0
    6.0789    3.8098    2.0561 O   0  0  0  0  0  0  0  0  0  0  0  0
    6.6218    4.5311    2.4201 H   0  0  0  0  0  0  0  0  0  0  0  0
  1  2  2  0  0  0  0
  1  6  1  0  0  0  0
  2  3  1  0  0  0  0
  3  4  2  0  0  0  0
  4  9  1  0  0  0  0
  5  4  1  0  0  0  0
  5 22  1  0  0  0  0
  6  5  2  0  0  0  0
  7  1  1  0  0  0  0
  8  6  1  0  0  0  0
 10 11  1  0  0  0  0
 11 12  1  0  0  0  0
 12 14  2  0  0  0  0
 12 13  1  0  0  0  0
 13 15  2  0  0  0  0
 14 17  1  0  0  0  0
 15 19  1  0  0  0  0
 15 20  1  0  0  0  0
 16 13  1  0  0  0  0
 17 21  1  0  0  0  0
 17 19  2  0  0  0  0
 18 14  1  0  0  0  0
 19 26  1  0  0  0  0
 22 23  2  0  0  0  0
 24 22  1  0  0  0  0
 24 25  1  0  0  0  0
 26 28  1  0  0  0  0
 26 27  2  0  0  0  0
 28 29  1  0  0  0  0
M  RAD  4   2   2   3   2  10   3  11   2
M  END
