Coordinates from ORCA-job 1g-Schema6-R11-K+-B3LYPG-6-31G_dp-scan-d49-09-n400
 OpenBabel08281819543D

 29 29  0  0  0  0  0  0  0  0999 V2000
   -0.9736    1.4822   -1.8810 C   0  0  0  0  0  0  0  0  0  0  0  0
    0.1631    0.8566   -1.4489 C   0  0  0  0  0  0  0  0  0  0  0  0
    0.5951    0.4082   -0.3519 C   0  0  0  0  0  0  0  0  0  0  0  0
   -0.2258    0.5193    0.7786 C   0  0  0  0  0  0  0  0  0  0  0  0
   -1.4636    1.1541    0.5267 C   0  0  0  0  0  0  0  0  0  0  0  0
   -1.8242    1.6153   -0.7571 C   0  0  0  0  0  0  0  0  0  0  0  0
   -1.2298    1.8296   -2.8730 H   0  0  0  0  0  0  0  0  0  0  0  0
   -2.7896    2.0906   -0.8968 H   0  0  0  0  0  0  0  0  0  0  0  0
    0.0067    0.1669    1.7775 H   0  0  0  0  0  0  0  0  0  0  0  0
    2.4122   -1.2839   -0.2795 N   0  0  0  0  0  0  0  0  0  0  0  0
    3.3461   -0.7910    0.1029 N   0  0  0  0  0  0  0  0  0  0  0  0
    4.3579    0.0220    0.5735 C   0  0  0  0  0  0  0  0  0  0  0  0
    5.6186   -0.5472    0.8313 C   0  0  0  0  0  0  0  0  0  0  0  0
    4.0559    1.3841    0.7672 C   0  0  0  0  0  0  0  0  0  0  0  0
    6.6110    0.2971    1.3038 C   0  0  0  0  0  0  0  0  0  0  0  0
    5.7962   -1.6034    0.6628 H   0  0  0  0  0  0  0  0  0  0  0  0
    5.0724    2.2001    1.2422 C   0  0  0  0  0  0  0  0  0  0  0  0
    3.0628    1.7609    0.5482 H   0  0  0  0  0  0  0  0  0  0  0  0
    6.3417    1.6599    1.5087 C   0  0  0  0  0  0  0  0  0  0  0  0
    7.6056   -0.0749    1.5234 H   0  0  0  0  0  0  0  0  0  0  0  0
    4.8899    3.2549    1.4103 H   0  0  0  0  0  0  0  0  0  0  0  0
   -2.3791    1.3116    1.7024 C   0  0  0  0  0  0  0  0  0  0  0  0
   -2.0961    0.9555    2.8259 O   0  0  0  0  0  0  0  0  0  0  0  0
   -3.5496    1.8946    1.3765 O   0  0  0  0  0  0  0  0  0  0  0  0
   -4.0760    1.9528    2.1922 H   0  0  0  0  0  0  0  0  0  0  0  0
    7.4742    2.5088    2.0247 C   0  0  0  0  0  0  0  0  0  0  0  0
    8.5732    2.0612    2.2563 O   0  0  0  0  0  0  0  0  0  0  0  0
    7.1125    3.7904    2.1876 O   0  0  0  0  0  0  0  0  0  0  0  0
    7.8850    4.2790    2.5222 H   0  0  0  0  0  0  0  0  0  0  0  0
  1  2  2  0  0  0  0
  1  6  1  0  0  0  0
  2  3  1  0  0  0  0
  3  4  2  0  0  0  0
  4  9  1  0  0  0  0
  5  4  1  0  0  0  0
  5 22  1  0  0  0  0
  6  5  2  0  0  0  0
  7  1  1  0  0  0  0
  8  6  1  0  0  0  0
 10 11  1  0  0  0  0
 11 12  1  0  0  0  0
 12 14  2  0  0  0  0
 12 13  1  0  0  0  0
 13 15  2  0  0  0  0
 14 17  1  0  0  0  0
 15 19  1  0  0  0  0
 15 20  1  0  0  0  0
 16 13  1  0  0  0  0
 17 21  1  0  0  0  0
 17 19  2  0  0  0  0
 18 14  1  0  0  0  0
 19 26  1  0  0  0  0
 22 23  2  0  0  0  0
 24 22  1  0  0  0  0
 24 25  1  0  0  0  0
 26 28  1  0  0  0  0
 26 27  2  0  0  0  0
 28 29  1  0  0  0  0
M  RAD  4   2   2   3   2  10   3  11   2
M  END
