Coordinates from ORCA-job 1g-Schema6-R11-K+-B3LYPG-6-31G_dp-scan-d49-09-n400
 OpenBabel08281819543D

 29 29  0  0  0  0  0  0  0  0999 V2000
   -0.8905    1.9338   -1.7245 C   0  0  0  0  0  0  0  0  0  0  0  0
    0.3314    1.6309   -1.1751 C   0  0  0  0  0  0  0  0  0  0  0  0
    0.7128    1.2451   -0.0424 C   0  0  0  0  0  0  0  0  0  0  0  0
   -0.2159    1.0516    0.9840 C   0  0  0  0  0  0  0  0  0  0  0  0
   -1.5467    1.3212    0.5850 C   0  0  0  0  0  0  0  0  0  0  0  0
   -1.8689    1.7477   -0.7218 C   0  0  0  0  0  0  0  0  0  0  0  0
   -1.1205    2.2640   -2.7289 H   0  0  0  0  0  0  0  0  0  0  0  0
   -2.9069    1.9454   -0.9692 H   0  0  0  0  0  0  0  0  0  0  0  0
   -0.0099    0.7306    1.9986 H   0  0  0  0  0  0  0  0  0  0  0  0
    2.7405   -1.8055   -0.1949 N   0  0  0  0  0  0  0  0  0  0  0  0
    3.5276   -1.0969    0.1530 N   0  0  0  0  0  0  0  0  0  0  0  0
    4.4832   -0.2027    0.5840 C   0  0  0  0  0  0  0  0  0  0  0  0
    5.7555   -0.7019    0.9352 C   0  0  0  0  0  0  0  0  0  0  0  0
    4.1163    1.1564    0.6449 C   0  0  0  0  0  0  0  0  0  0  0  0
    6.6912    0.2215    1.3676 C   0  0  0  0  0  0  0  0  0  0  0  0
    5.9811   -1.7604    0.8670 H   0  0  0  0  0  0  0  0  0  0  0  0
    5.0835    2.0488    1.0846 C   0  0  0  0  0  0  0  0  0  0  0  0
    3.1122    1.4629    0.3583 H   0  0  0  0  0  0  0  0  0  0  0  0
    6.3601    1.5860    1.4429 C   0  0  0  0  0  0  0  0  0  0  0  0
    7.6900   -0.0879    1.6554 H   0  0  0  0  0  0  0  0  0  0  0  0
    4.8538    3.1058    1.1531 H   0  0  0  0  0  0  0  0  0  0  0  0
   -2.6028    1.1290    1.6282 C   0  0  0  0  0  0  0  0  0  0  0  0
   -2.3750    0.7530    2.7588 O   0  0  0  0  0  0  0  0  0  0  0  0
   -3.8420    1.4168    1.1794 O   0  0  0  0  0  0  0  0  0  0  0  0
   -4.4520    1.2635    1.9209 H   0  0  0  0  0  0  0  0  0  0  0  0
    7.4393    2.5215    1.9262 C   0  0  0  0  0  0  0  0  0  0  0  0
    8.5424    2.1363    2.2367 O   0  0  0  0  0  0  0  0  0  0  0  0
    7.0229    3.7946    1.9648 O   0  0  0  0  0  0  0  0  0  0  0  0
    7.7598    4.3439    2.2856 H   0  0  0  0  0  0  0  0  0  0  0  0
  1  2  2  0  0  0  0
  1  6  1  0  0  0  0
  2  3  1  0  0  0  0
  3  4  2  0  0  0  0
  4  9  1  0  0  0  0
  5  4  1  0  0  0  0
  5 22  1  0  0  0  0
  6  5  2  0  0  0  0
  7  1  1  0  0  0  0
  8  6  1  0  0  0  0
 10 11  1  0  0  0  0
 11 12  1  0  0  0  0
 12 14  2  0  0  0  0
 12 13  1  0  0  0  0
 13 15  2  0  0  0  0
 14 17  1  0  0  0  0
 15 19  1  0  0  0  0
 15 20  1  0  0  0  0
 16 13  1  0  0  0  0
 17 21  1  0  0  0  0
 17 19  2  0  0  0  0
 18 14  1  0  0  0  0
 19 26  1  0  0  0  0
 22 23  2  0  0  0  0
 24 22  1  0  0  0  0
 24 25  1  0  0  0  0
 26 28  1  0  0  0  0
 26 27  2  0  0  0  0
 28 29  1  0  0  0  0
M  RAD  4   2   2   3   2  10   3  11   2
M  END
