Coordinates from ORCA-job 1g-Schema6-R11-K+-B3LYPG-6-31G_dp-scan-d49-09-n400
 OpenBabel08281819543D

 29 29  0  0  0  0  0  0  0  0999 V2000
   -0.9126    2.0009   -1.7347 C   0  0  0  0  0  0  0  0  0  0  0  0
    0.3245    1.6861   -1.2288 C   0  0  0  0  0  0  0  0  0  0  0  0
    0.7444    1.2947   -0.1118 C   0  0  0  0  0  0  0  0  0  0  0  0
   -0.1508    1.1049    0.9447 C   0  0  0  0  0  0  0  0  0  0  0  0
   -1.4927    1.3866    0.5942 C   0  0  0  0  0  0  0  0  0  0  0  0
   -1.8572    1.8198   -0.6991 C   0  0  0  0  0  0  0  0  0  0  0  0
   -1.1746    2.3357   -2.7297 H   0  0  0  0  0  0  0  0  0  0  0  0
   -2.9015    2.0266   -0.9095 H   0  0  0  0  0  0  0  0  0  0  0  0
    0.0880    0.7788    1.9505 H   0  0  0  0  0  0  0  0  0  0  0  0
    2.9307   -2.0393   -0.2895 N   0  0  0  0  0  0  0  0  0  0  0  0
    3.6542   -1.2760    0.0810 N   0  0  0  0  0  0  0  0  0  0  0  0
    4.5398   -0.3256    0.5393 C   0  0  0  0  0  0  0  0  0  0  0  0
    5.8236   -0.7512    0.9432 C   0  0  0  0  0  0  0  0  0  0  0  0
    4.0960    1.0117    0.5739 C   0  0  0  0  0  0  0  0  0  0  0  0
    6.6894    0.2256    1.4024 C   0  0  0  0  0  0  0  0  0  0  0  0
    6.1096   -1.7960    0.8933 H   0  0  0  0  0  0  0  0  0  0  0  0
    4.9954    1.9591    1.0423 C   0  0  0  0  0  0  0  0  0  0  0  0
    3.0867    1.2644    0.2498 H   0  0  0  0  0  0  0  0  0  0  0  0
    6.2807    1.5702    1.4529 C   0  0  0  0  0  0  0  0  0  0  0  0
    7.6918   -0.0258    1.7310 H   0  0  0  0  0  0  0  0  0  0  0  0
    4.7051    3.0020    1.0928 H   0  0  0  0  0  0  0  0  0  0  0  0
   -2.5126    1.1994    1.6733 C   0  0  0  0  0  0  0  0  0  0  0  0
   -2.2483    0.8184    2.7944 O   0  0  0  0  0  0  0  0  0  0  0  0
   -3.7647    1.4991    1.2700 O   0  0  0  0  0  0  0  0  0  0  0  0
   -4.3487    1.3488    2.0328 H   0  0  0  0  0  0  0  0  0  0  0  0
    7.2872    2.5674    1.9691 C   0  0  0  0  0  0  0  0  0  0  0  0
    8.3970    2.2461    2.3249 O   0  0  0  0  0  0  0  0  0  0  0  0
    6.7999    3.8156    1.9805 O   0  0  0  0  0  0  0  0  0  0  0  0
    7.4924    4.4073    2.3240 H   0  0  0  0  0  0  0  0  0  0  0  0
  1  2  2  0  0  0  0
  1  6  1  0  0  0  0
  2  3  1  0  0  0  0
  3  4  2  0  0  0  0
  4  9  1  0  0  0  0
  5  4  1  0  0  0  0
  5 22  1  0  0  0  0
  6  5  2  0  0  0  0
  7  1  1  0  0  0  0
  8  6  1  0  0  0  0
 10 11  1  0  0  0  0
 11 12  1  0  0  0  0
 12 14  2  0  0  0  0
 12 13  1  0  0  0  0
 13 15  2  0  0  0  0
 14 17  1  0  0  0  0
 15 19  1  0  0  0  0
 15 20  1  0  0  0  0
 16 13  1  0  0  0  0
 17 21  1  0  0  0  0
 17 19  2  0  0  0  0
 18 14  1  0  0  0  0
 19 26  1  0  0  0  0
 22 23  2  0  0  0  0
 24 22  1  0  0  0  0
 24 25  1  0  0  0  0
 26 28  1  0  0  0  0
 26 27  2  0  0  0  0
 28 29  1  0  0  0  0
M  RAD  4   2   2   3   2  10   3  11   2
M  END
