Coordinates from ORCA-job 1g-Schema6-R11-K+-B3LYPG-6-31G_dp-scan-d49-09-n400
 OpenBabel08281819543D

 29 32  0  0  1  0  0  0  0  0999 V2000
    0.9161    2.3662    0.3881 C   0  0  0  0  0  0  0  0  0  0  0  0
    1.8318    1.3316    0.3066 C   0  0  0  0  0  0  0  0  0  0  0  0
    1.4203   -0.0569    0.3836 C   0  0  1  0  0  0  0  0  0  0  0  0
    0.0532   -0.3597    0.7347 C   0  0  0  0  0  0  0  0  0  0  0  0
   -0.8399    0.6776    0.8304 C   0  0  0  0  0  0  0  0  0  0  0  0
   -0.4149    2.0284    0.6407 C   0  0  0  0  0  0  0  0  0  0  0  0
    1.2105    3.4069    0.3052 H   0  0  0  0  0  0  0  0  0  0  0  0
   -1.1584    2.8134    0.7300 H   0  0  0  0  0  0  0  0  0  0  0  0
   -0.2762   -1.3888    0.8407 H   0  0  0  0  0  0  0  0  0  0  0  0
    2.0635   -0.8056   -0.8103 N   0  0  0  0  0  0  0  0  0  0  0  0
    2.5185   -0.8535    0.4941 N   0  0  0  0  0  0  0  0  0  0  0  0
    3.6846   -0.0545    0.7488 C   0  0  0  0  0  0  0  0  0  0  0  0
    4.9183   -0.4069    1.2014 C   0  0  0  0  0  0  0  0  0  0  0  0
    3.3443    1.2991    0.2646 C   0  0  2  0  0  0  0  0  0  0  0  0
    5.8791    0.6298    1.2628 C   0  0  0  0  0  0  0  0  0  0  0  0
    5.1569   -1.4234    1.4947 H   0  0  0  0  0  0  0  0  0  0  0  0
    4.3009    2.3488    0.5461 C   0  0  0  0  0  0  0  0  0  0  0  0
    3.4460    1.0005   -0.8452 H   0  0  0  0  0  0  0  0  0  0  0  0
    5.5705    1.9754    0.9624 C   0  0  0  0  0  0  0  0  0  0  0  0
    6.9007    0.4107    1.5590 H   0  0  0  0  0  0  0  0  0  0  0  0
    4.0501    3.3959    0.4137 H   0  0  0  0  0  0  0  0  0  0  0  0
   -2.2711    0.3327    1.1372 C   0  0  0  0  0  0  0  0  0  0  0  0
   -2.6544   -0.8003    1.3092 O   0  0  0  0  0  0  0  0  0  0  0  0
   -3.0495    1.4265    1.2003 O   0  0  0  0  0  0  0  0  0  0  0  0
   -3.9549    1.1342    1.4049 H   0  0  0  0  0  0  0  0  0  0  0  0
    6.6709    2.9825    1.1661 C   0  0  0  0  0  0  0  0  0  0  0  0
    7.7841    2.6776    1.5231 O   0  0  0  0  0  0  0  0  0  0  0  0
    6.2597    4.2342    0.9056 O   0  0  0  0  0  0  0  0  0  0  0  0
    7.0118    4.8327    1.0586 H   0  0  0  0  0  0  0  0  0  0  0  0
  1  6  1  0  0  0  0
  2  3  1  0  0  0  0
  2  1  2  0  0  0  0
  3 10  1  6  0  0  0
  3 11  1  0  0  0  0
  3  4  1  0  0  0  0
  4  5  2  0  0  0  0
  4  9  1  0  0  0  0
  5 22  1  0  0  0  0
  6  8  1  0  0  0  0
  6  5  1  0  0  0  0
  7  1  1  0  0  0  0
 10 11  1  0  0  0  0
 11 12  1  0  0  0  0
 12 13  2  0  0  0  0
 13 15  1  0  0  0  0
 13 16  1  0  0  0  0
 14 18  1  6  0  0  0
 14  2  1  0  0  0  0
 14 17  1  0  0  0  0
 14 12  1  0  0  0  0
 15 20  1  0  0  0  0
 17 19  2  0  0  0  0
 19 26  1  0  0  0  0
 19 15  1  0  0  0  0
 21 17  1  0  0  0  0
 22 24  1  0  0  0  0
 22 23  2  0  0  0  0
 24 25  1  0  0  0  0
 26 27  2  0  0  0  0
 28 29  1  0  0  0  0
 28 26  1  0  0  0  0
M  RAD  3   6   2  10   2  15   2
M  END
