Coordinates from ORCA-job 1g-Schema6-R11-K+-B3LYPG-6-31G_dp-scan-d49-09-n400
 OpenBabel08281819543D

 29 29  0  0  0  0  0  0  0  0999 V2000
   -0.8115    2.0683   -1.6807 C   0  0  0  0  0  0  0  0  0  0  0  0
    0.3807    1.6266   -1.1603 C   0  0  0  0  0  0  0  0  0  0  0  0
    0.7389    1.1945   -0.0372 C   0  0  0  0  0  0  0  0  0  0  0  0
   -0.1850    1.0917    1.0057 C   0  0  0  0  0  0  0  0  0  0  0  0
   -1.4854    1.5115    0.6372 C   0  0  0  0  0  0  0  0  0  0  0  0
   -1.7847    1.9827   -0.6596 C   0  0  0  0  0  0  0  0  0  0  0  0
   -1.0242    2.4286   -2.6785 H   0  0  0  0  0  0  0  0  0  0  0  0
   -2.7995    2.2939   -0.8847 H   0  0  0  0  0  0  0  0  0  0  0  0
    0.0048    0.7378    2.0124 H   0  0  0  0  0  0  0  0  0  0  0  0
    3.4111   -2.5123   -0.3657 N   0  0  0  0  0  0  0  0  0  0  0  0
    4.0035   -1.6474    0.0147 N   0  0  0  0  0  0  0  0  0  0  0  0
    4.7314   -0.5771    0.4849 C   0  0  0  0  0  0  0  0  0  0  0  0
    6.0908   -0.7897    0.8017 C   0  0  0  0  0  0  0  0  0  0  0  0
    4.0660    0.6578    0.6193 C   0  0  0  0  0  0  0  0  0  0  0  0
    6.8005    0.2995    1.2752 C   0  0  0  0  0  0  0  0  0  0  0  0
    6.5493   -1.7646    0.6771 H   0  0  0  0  0  0  0  0  0  0  0  0
    4.8154    1.7237    1.0972 C   0  0  0  0  0  0  0  0  0  0  0  0
    3.0119    0.7635    0.3589 H   0  0  0  0  0  0  0  0  0  0  0  0
    6.1697    1.5476    1.4228 C   0  0  0  0  0  0  0  0  0  0  0  0
    7.8484    0.2114    1.5406 H   0  0  0  0  0  0  0  0  0  0  0  0
    4.3515    2.6955    1.2205 H   0  0  0  0  0  0  0  0  0  0  0  0
   -2.5344    1.4294    1.7011 C   0  0  0  0  0  0  0  0  0  0  0  0
   -2.3259    1.0303    2.8275 O   0  0  0  0  0  0  0  0  0  0  0  0
   -3.7460    1.8464    1.2772 O   0  0  0  0  0  0  0  0  0  0  0  0
   -4.3527    1.7561    2.0316 H   0  0  0  0  0  0  0  0  0  0  0  0
    7.0174    2.6794    1.9464 C   0  0  0  0  0  0  0  0  0  0  0  0
    8.1839    2.5398    2.2307 O   0  0  0  0  0  0  0  0  0  0  0  0
    6.3241    3.8215    2.0497 O   0  0  0  0  0  0  0  0  0  0  0  0
    6.9226    4.5089    2.3916 H   0  0  0  0  0  0  0  0  0  0  0  0
  1  2  2  0  0  0  0
  1  6  1  0  0  0  0
  2  3  1  0  0  0  0
  3  4  2  0  0  0  0
  4  9  1  0  0  0  0
  5  4  1  0  0  0  0
  5 22  1  0  0  0  0
  6  5  2  0  0  0  0
  7  1  1  0  0  0  0
  8  6  1  0  0  0  0
 10 11  1  0  0  0  0
 11 12  1  0  0  0  0
 12 14  2  0  0  0  0
 12 13  1  0  0  0  0
 13 15  2  0  0  0  0
 14 17  1  0  0  0  0
 15 19  1  0  0  0  0
 15 20  1  0  0  0  0
 16 13  1  0  0  0  0
 17 21  1  0  0  0  0
 17 19  2  0  0  0  0
 18 14  1  0  0  0  0
 19 26  1  0  0  0  0
 22 23  2  0  0  0  0
 24 22  1  0  0  0  0
 24 25  1  0  0  0  0
 26 28  1  0  0  0  0
 26 27  2  0  0  0  0
 28 29  1  0  0  0  0
M  RAD  4   2   2   3   2  10   3  11   2
M  END
