Coordinates from ORCA-job 1g-Schema6-R11-K+-B3LYPG-6-31G_dp-scan-d49-09-n400
 OpenBabel08281819543D

 29 29  0  0  0  0  0  0  0  0999 V2000
   -0.8080    2.0585   -1.6796 C   0  0  0  0  0  0  0  0  0  0  0  0
    0.3787    1.5878   -1.1717 C   0  0  0  0  0  0  0  0  0  0  0  0
    0.7374    1.1557   -0.0489 C   0  0  0  0  0  0  0  0  0  0  0  0
   -0.1740    1.0866    1.0071 C   0  0  0  0  0  0  0  0  0  0  0  0
   -1.4668    1.5400    0.6515 C   0  0  0  0  0  0  0  0  0  0  0  0
   -1.7697    2.0087   -0.6454 C   0  0  0  0  0  0  0  0  0  0  0  0
   -1.0241    2.4161   -2.6777 H   0  0  0  0  0  0  0  0  0  0  0  0
   -2.7785    2.3456   -0.8601 H   0  0  0  0  0  0  0  0  0  0  0  0
    0.0191    0.7353    2.0140 H   0  0  0  0  0  0  0  0  0  0  0  0
    3.5399   -2.5998   -0.4350 N   0  0  0  0  0  0  0  0  0  0  0  0
    4.0949   -1.7171   -0.0392 N   0  0  0  0  0  0  0  0  0  0  0  0
    4.7769   -0.6253    0.4497 C   0  0  0  0  0  0  0  0  0  0  0  0
    6.1362   -0.7949    0.7923 C   0  0  0  0  0  0  0  0  0  0  0  0
    4.0693    0.5867    0.5762 C   0  0  0  0  0  0  0  0  0  0  0  0
    6.8010    0.3144    1.2841 C   0  0  0  0  0  0  0  0  0  0  0  0
    6.6286   -1.7538    0.6728 H   0  0  0  0  0  0  0  0  0  0  0  0
    4.7744    1.6738    1.0734 C   0  0  0  0  0  0  0  0  0  0  0  0
    3.0178    0.6641    0.2976 H   0  0  0  0  0  0  0  0  0  0  0  0
    6.1272    1.5406    1.4247 C   0  0  0  0  0  0  0  0  0  0  0  0
    7.8459    0.2592    1.5692 H   0  0  0  0  0  0  0  0  0  0  0  0
    4.2761    2.6292    1.1915 H   0  0  0  0  0  0  0  0  0  0  0  0
   -2.5033    1.4970    1.7297 C   0  0  0  0  0  0  0  0  0  0  0  0
   -2.2913    1.1022    2.8570 O   0  0  0  0  0  0  0  0  0  0  0  0
   -3.7087    1.9429    1.3174 O   0  0  0  0  0  0  0  0  0  0  0  0
   -4.3078    1.8757    2.0803 H   0  0  0  0  0  0  0  0  0  0  0  0
    6.9276    2.6967    1.9689 C   0  0  0  0  0  0  0  0  0  0  0  0
    8.0925    2.5935    2.2746 O   0  0  0  0  0  0  0  0  0  0  0  0
    6.1959    3.8154    2.0635 O   0  0  0  0  0  0  0  0  0  0  0  0
    6.7654    4.5203    2.4191 H   0  0  0  0  0  0  0  0  0  0  0  0
  1  2  2  0  0  0  0
  1  6  1  0  0  0  0
  2  3  1  0  0  0  0
  3  4  2  0  0  0  0
  4  9  1  0  0  0  0
  5  4  1  0  0  0  0
  5 22  1  0  0  0  0
  6  5  2  0  0  0  0
  7  1  1  0  0  0  0
  8  6  1  0  0  0  0
 10 11  1  0  0  0  0
 11 12  1  0  0  0  0
 12 14  2  0  0  0  0
 12 13  1  0  0  0  0
 13 15  2  0  0  0  0
 14 17  1  0  0  0  0
 15 19  1  0  0  0  0
 15 20  1  0  0  0  0
 16 13  1  0  0  0  0
 17 21  1  0  0  0  0
 17 19  2  0  0  0  0
 18 14  1  0  0  0  0
 19 26  1  0  0  0  0
 22 23  2  0  0  0  0
 24 22  1  0  0  0  0
 24 25  1  0  0  0  0
 26 28  1  0  0  0  0
 26 27  2  0  0  0  0
 28 29  1  0  0  0  0
M  RAD  4   2   2   3   2  10   3  11   2
M  END
