Coordinates from ORCA-job 1g-Schema6-R11-K+-B3LYPG-6-31G_dp-scan-d49-09-n400
 OpenBabel08281819543D

 29 29  0  0  0  0  0  0  0  0999 V2000
   -0.9820    1.5733   -1.7894 C   0  0  0  0  0  0  0  0  0  0  0  0
    0.1519    1.0299   -1.2406 C   0  0  0  0  0  0  0  0  0  0  0  0
    0.4610    0.5986   -0.0999 C   0  0  0  0  0  0  0  0  0  0  0  0
   -0.4782    0.6195    0.9349 C   0  0  0  0  0  0  0  0  0  0  0  0
   -1.7241    1.1609    0.5402 C   0  0  0  0  0  0  0  0  0  0  0  0
   -1.9650    1.6185   -0.7736 C   0  0  0  0  0  0  0  0  0  0  0  0
   -1.1502    1.9209   -2.8001 H   0  0  0  0  0  0  0  0  0  0  0  0
   -2.9415    2.0227   -1.0194 H   0  0  0  0  0  0  0  0  0  0  0  0
   -0.3350    0.2706    1.9510 H   0  0  0  0  0  0  0  0  0  0  0  0
    2.5203   -1.2668   -0.1239 N   0  0  0  0  0  0  0  0  0  0  0  0
    3.4662   -0.7689    0.2089 N   0  0  0  0  0  0  0  0  0  0  0  0
    4.5127    0.0260    0.6291 C   0  0  0  0  0  0  0  0  0  0  0  0
    5.7814   -0.5538    0.8155 C   0  0  0  0  0  0  0  0  0  0  0  0
    4.2255    1.3884    0.8465 C   0  0  0  0  0  0  0  0  0  0  0  0
    6.8002    0.2839    1.2400 C   0  0  0  0  0  0  0  0  0  0  0  0
    5.9446   -1.6098    0.6314 H   0  0  0  0  0  0  0  0  0  0  0  0
    5.2699    2.1959    1.2720 C   0  0  0  0  0  0  0  0  0  0  0  0
    3.2228    1.7692    0.6811 H   0  0  0  0  0  0  0  0  0  0  0  0
    6.5485    1.6469    1.4672 C   0  0  0  0  0  0  0  0  0  0  0  0
    7.8035   -0.0934    1.4047 H   0  0  0  0  0  0  0  0  0  0  0  0
    5.1022    3.2504    1.4562 H   0  0  0  0  0  0  0  0  0  0  0  0
   -2.7837    1.2222    1.5970 C   0  0  0  0  0  0  0  0  0  0  0  0
   -2.6163    0.8568    2.7408 O   0  0  0  0  0  0  0  0  0  0  0  0
   -3.9475    1.7290    1.1411 O   0  0  0  0  0  0  0  0  0  0  0  0
   -4.5689    1.7270    1.8892 H   0  0  0  0  0  0  0  0  0  0  0  0
    7.7122    2.4867    1.9274 C   0  0  0  0  0  0  0  0  0  0  0  0
    8.8184    2.0299    2.0981 O   0  0  0  0  0  0  0  0  0  0  0  0
    7.3665    3.7684    2.1171 O   0  0  0  0  0  0  0  0  0  0  0  0
    8.1572    4.2522    2.4143 H   0  0  0  0  0  0  0  0  0  0  0  0
  1  2  2  0  0  0  0
  1  6  1  0  0  0  0
  2  3  1  0  0  0  0
  3  4  2  0  0  0  0
  4  9  1  0  0  0  0
  5  4  1  0  0  0  0
  5 22  1  0  0  0  0
  6  5  2  0  0  0  0
  7  1  1  0  0  0  0
  8  6  1  0  0  0  0
 10 11  1  0  0  0  0
 11 12  1  0  0  0  0
 12 13  2  0  0  0  0
 12 14  1  0  0  0  0
 13 15  1  0  0  0  0
 14 17  2  0  0  0  0
 15 20  1  0  0  0  0
 15 19  2  0  0  0  0
 16 13  1  0  0  0  0
 17 21  1  0  0  0  0
 17 19  1  0  0  0  0
 18 14  1  0  0  0  0
 19 26  1  0  0  0  0
 22 23  2  0  0  0  0
 24 22  1  0  0  0  0
 24 25  1  0  0  0  0
 26 27  2  0  0  0  0
 26 28  1  0  0  0  0
 28 29  1  0  0  0  0
M  RAD  4   2   2   3   2  10   3  11   2
M  END
