Coordinates from ORCA-job 1g-Schema6-R11-K+-B3LYPG-6-31G_dp-scan-d49-09-n400
 OpenBabel08281819543D

 29 29  0  0  0  0  0  0  0  0999 V2000
   -0.9013    1.8960   -1.7367 C   0  0  0  0  0  0  0  0  0  0  0  0
    0.3253    1.6188   -1.1846 C   0  0  0  0  0  0  0  0  0  0  0  0
    0.7144    1.2536   -0.0477 C   0  0  0  0  0  0  0  0  0  0  0  0
   -0.2105    1.0612    0.9827 C   0  0  0  0  0  0  0  0  0  0  0  0
   -1.5455    1.3062    0.5822 C   0  0  0  0  0  0  0  0  0  0  0  0
   -1.8756    1.7100   -0.7298 C   0  0  0  0  0  0  0  0  0  0  0  0
   -1.1374    2.2094   -2.7451 H   0  0  0  0  0  0  0  0  0  0  0  0
   -2.9166    1.8899   -0.9782 H   0  0  0  0  0  0  0  0  0  0  0  0
    0.0014    0.7569    2.0013 H   0  0  0  0  0  0  0  0  0  0  0  0
    2.6777   -1.7157   -0.2036 N   0  0  0  0  0  0  0  0  0  0  0  0
    3.4848   -1.0318    0.1482 N   0  0  0  0  0  0  0  0  0  0  0  0
    4.4595   -0.1602    0.5825 C   0  0  0  0  0  0  0  0  0  0  0  0
    5.7198   -0.6869    0.9359 C   0  0  0  0  0  0  0  0  0  0  0  0
    4.1213    1.2064    0.6449 C   0  0  0  0  0  0  0  0  0  0  0  0
    6.6738    0.2159    1.3719 C   0  0  0  0  0  0  0  0  0  0  0  0
    5.9231   -1.7498    0.8665 H   0  0  0  0  0  0  0  0  0  0  0  0
    5.1059    2.0776    1.0884 C   0  0  0  0  0  0  0  0  0  0  0  0
    3.1245    1.5330    0.3555 H   0  0  0  0  0  0  0  0  0  0  0  0
    6.3716    1.5870    1.4488 C   0  0  0  0  0  0  0  0  0  0  0  0
    7.6652   -0.1149    1.6614 H   0  0  0  0  0  0  0  0  0  0  0  0
    4.8988    3.1391    1.1580 H   0  0  0  0  0  0  0  0  0  0  0  0
   -2.5974    1.1134    1.6297 C   0  0  0  0  0  0  0  0  0  0  0  0
   -2.3628    0.7540    2.7642 O   0  0  0  0  0  0  0  0  0  0  0  0
   -3.8410    1.3788    1.1792 O   0  0  0  0  0  0  0  0  0  0  0  0
   -4.4479    1.2266    1.9235 H   0  0  0  0  0  0  0  0  0  0  0  0
    7.4695    2.4985    1.9357 C   0  0  0  0  0  0  0  0  0  0  0  0
    8.5634    2.0892    2.2481 O   0  0  0  0  0  0  0  0  0  0  0  0
    7.0804    3.7802    1.9755 O   0  0  0  0  0  0  0  0  0  0  0  0
    7.8282    4.3129    2.2988 H   0  0  0  0  0  0  0  0  0  0  0  0
  1  2  2  0  0  0  0
  1  6  1  0  0  0  0
  2  3  1  0  0  0  0
  3  4  2  0  0  0  0
  4  9  1  0  0  0  0
  5  4  1  0  0  0  0
  5 22  1  0  0  0  0
  6  5  2  0  0  0  0
  7  1  1  0  0  0  0
  8  6  1  0  0  0  0
 10 11  1  0  0  0  0
 11 12  1  0  0  0  0
 12 14  2  0  0  0  0
 12 13  1  0  0  0  0
 13 15  2  0  0  0  0
 14 17  1  0  0  0  0
 15 19  1  0  0  0  0
 15 20  1  0  0  0  0
 16 13  1  0  0  0  0
 17 21  1  0  0  0  0
 17 19  2  0  0  0  0
 18 14  1  0  0  0  0
 19 26  1  0  0  0  0
 22 23  2  0  0  0  0
 24 22  1  0  0  0  0
 24 25  1  0  0  0  0
 26 28  1  0  0  0  0
 26 27  2  0  0  0  0
 28 29  1  0  0  0  0
M  RAD  4   2   2   3   2  10   3  11   2
M  END
