Coordinates from ORCA-job 1g-Schema6-R11-K+-B3LYPG-6-31G_dp-scan-d49-09-n400
 OpenBabel08281819543D

 29 29  0  0  0  0  0  0  0  0999 V2000
   -1.0304    1.2742   -1.9595 C   0  0  0  0  0  0  0  0  0  0  0  0
    0.1039    0.5700   -1.6818 C   0  0  0  0  0  0  0  0  0  0  0  0
    0.7103    0.1560   -0.6502 C   0  0  0  0  0  0  0  0  0  0  0  0
    0.1172    0.4341    0.5900 C   0  0  0  0  0  0  0  0  0  0  0  0
   -1.0866    1.1697    0.5151 C   0  0  0  0  0  0  0  0  0  0  0  0
   -1.6433    1.5708   -0.7165 C   0  0  0  0  0  0  0  0  0  0  0  0
   -1.4347    1.5743   -2.9171 H   0  0  0  0  0  0  0  0  0  0  0  0
   -2.5750    2.1274   -0.7238 H   0  0  0  0  0  0  0  0  0  0  0  0
    0.5014    0.1261    1.5575 H   0  0  0  0  0  0  0  0  0  0  0  0
    2.3280   -1.3136   -0.6052 N   0  0  0  0  0  0  0  0  0  0  0  0
    3.2371   -0.8375   -0.1290 N   0  0  0  0  0  0  0  0  0  0  0  0
    4.1675    0.0070    0.4451 C   0  0  0  0  0  0  0  0  0  0  0  0
    5.4161   -0.5343    0.8040 C   0  0  0  0  0  0  0  0  0  0  0  0
    3.8252    1.3605    0.6367 C   0  0  0  0  0  0  0  0  0  0  0  0
    6.3470    0.3187    1.3764 C   0  0  0  0  0  0  0  0  0  0  0  0
    5.6305   -1.5832    0.6331 H   0  0  0  0  0  0  0  0  0  0  0  0
    4.7792    2.1886    1.2107 C   0  0  0  0  0  0  0  0  0  0  0  0
    2.8488    1.7278    0.3441 H   0  0  0  0  0  0  0  0  0  0  0  0
    6.0324    1.6713    1.5789 C   0  0  0  0  0  0  0  0  0  0  0  0
    7.3260   -0.0386    1.6752 H   0  0  0  0  0  0  0  0  0  0  0  0
    4.5595    3.2362    1.3787 H   0  0  0  0  0  0  0  0  0  0  0  0
   -1.7415    1.5028    1.8219 C   0  0  0  0  0  0  0  0  0  0  0  0
   -1.2638    1.2176    2.8986 O   0  0  0  0  0  0  0  0  0  0  0  0
   -2.9101    2.1526    1.6668 O   0  0  0  0  0  0  0  0  0  0  0  0
   -3.2642    2.3255    2.5561 H   0  0  0  0  0  0  0  0  0  0  0  0
    7.0954    2.5343    2.2053 C   0  0  0  0  0  0  0  0  0  0  0  0
    8.1800    2.1078    2.5277 O   0  0  0  0  0  0  0  0  0  0  0  0
    6.6929    3.8062    2.3554 O   0  0  0  0  0  0  0  0  0  0  0  0
    7.4238    4.3030    2.7630 H   0  0  0  0  0  0  0  0  0  0  0  0
  1  2  2  0  0  0  0
  1  6  1  0  0  0  0
  2  3  1  0  0  0  0
  3  4  2  0  0  0  0
  4  9  1  0  0  0  0
  5  4  1  0  0  0  0
  5 22  1  0  0  0  0
  6  5  2  0  0  0  0
  7  1  1  0  0  0  0
  8  6  1  0  0  0  0
 10 11  1  0  0  0  0
 11 12  1  0  0  0  0
 12 14  2  0  0  0  0
 12 13  1  0  0  0  0
 13 15  2  0  0  0  0
 14 17  1  0  0  0  0
 15 19  1  0  0  0  0
 15 20  1  0  0  0  0
 16 13  1  0  0  0  0
 17 21  1  0  0  0  0
 17 19  2  0  0  0  0
 18 14  1  0  0  0  0
 19 26  1  0  0  0  0
 22 23  2  0  0  0  0
 24 22  1  0  0  0  0
 24 25  1  0  0  0  0
 26 28  1  0  0  0  0
 26 27  2  0  0  0  0
 28 29  1  0  0  0  0
M  RAD  4   2   2   3   2  10   3  11   2
M  END
