Coordinates from ORCA-job 1g-Schema6-R11-K+-B3LYPG-6-31G_dp-scan-d49-09-n400
 OpenBabel08281819543D

 29 29  0  0  0  0  0  0  0  0999 V2000
   -1.0280    1.4997   -1.8643 C   0  0  0  0  0  0  0  0  0  0  0  0
    0.1139    0.9094   -1.3920 C   0  0  0  0  0  0  0  0  0  0  0  0
    0.5077    0.4798   -0.2753 C   0  0  0  0  0  0  0  0  0  0  0  0
   -0.3516    0.5653    0.8262 C   0  0  0  0  0  0  0  0  0  0  0  0
   -1.5983    1.1608    0.5242 C   0  0  0  0  0  0  0  0  0  0  0  0
   -1.9235    1.6086   -0.7742 C   0  0  0  0  0  0  0  0  0  0  0  0
   -1.2589    1.8372   -2.8660 H   0  0  0  0  0  0  0  0  0  0  0  0
   -2.8972    2.0539   -0.9504 H   0  0  0  0  0  0  0  0  0  0  0  0
   -0.1452    0.2249    1.8347 H   0  0  0  0  0  0  0  0  0  0  0  0
    2.4909   -1.2831   -0.2238 N   0  0  0  0  0  0  0  0  0  0  0  0
    3.4250   -0.7822    0.1408 N   0  0  0  0  0  0  0  0  0  0  0  0
    4.4500    0.0226    0.5960 C   0  0  0  0  0  0  0  0  0  0  0  0
    5.7165   -0.5487    0.8193 C   0  0  0  0  0  0  0  0  0  0  0  0
    4.1486    1.3820    0.8095 C   0  0  0  0  0  0  0  0  0  0  0  0
    6.7172    0.2934    1.2776 C   0  0  0  0  0  0  0  0  0  0  0  0
    5.8920   -1.6029    0.6365 H   0  0  0  0  0  0  0  0  0  0  0  0
    5.1744    2.1948    1.2695 C   0  0  0  0  0  0  0  0  0  0  0  0
    3.1497    1.7587    0.6160 H   0  0  0  0  0  0  0  0  0  0  0  0
    6.4501    1.6538    1.5017 C   0  0  0  0  0  0  0  0  0  0  0  0
    7.7172   -0.0786    1.4712 H   0  0  0  0  0  0  0  0  0  0  0  0
    4.9941    3.2475    1.4520 H   0  0  0  0  0  0  0  0  0  0  0  0
   -2.5628    1.2920    1.6626 C   0  0  0  0  0  0  0  0  0  0  0  0
   -2.3159    0.9436    2.7973 O   0  0  0  0  0  0  0  0  0  0  0  0
   -3.7363    1.8428    1.2918 O   0  0  0  0  0  0  0  0  0  0  0  0
   -4.2939    1.8850    2.0874 H   0  0  0  0  0  0  0  0  0  0  0  0
    7.5933    2.4996    2.0001 C   0  0  0  0  0  0  0  0  0  0  0  0
    8.6975    2.0506    2.2018 O   0  0  0  0  0  0  0  0  0  0  0  0
    7.2335    3.7787    2.1827 O   0  0  0  0  0  0  0  0  0  0  0  0
    8.0122    4.2663    2.5042 H   0  0  0  0  0  0  0  0  0  0  0  0
  1  2  2  0  0  0  0
  1  6  1  0  0  0  0
  2  3  1  0  0  0  0
  3  4  2  0  0  0  0
  4  9  1  0  0  0  0
  5  4  1  0  0  0  0
  5 22  1  0  0  0  0
  6  5  2  0  0  0  0
  7  1  1  0  0  0  0
  8  6  1  0  0  0  0
 10 11  1  0  0  0  0
 11 12  1  0  0  0  0
 12 14  2  0  0  0  0
 12 13  1  0  0  0  0
 13 15  2  0  0  0  0
 14 17  1  0  0  0  0
 15 20  1  0  0  0  0
 15 19  1  0  0  0  0
 16 13  1  0  0  0  0
 17 21  1  0  0  0  0
 17 19  2  0  0  0  0
 18 14  1  0  0  0  0
 19 26  1  0  0  0  0
 22 23  2  0  0  0  0
 24 22  1  0  0  0  0
 24 25  1  0  0  0  0
 26 28  1  0  0  0  0
 26 27  2  0  0  0  0
 28 29  1  0  0  0  0
M  RAD  4   2   2   3   2  10   3  11   2
M  END
