Coordinates from ORCA-job 1g-Schema6-R11-K+-B3LYPG-6-31G_dp-scan-d49-09-n400
 OpenBabel08281819543D

 29 30  0  0  0  0  0  0  0  0999 V2000
   -0.4686    1.6799   -1.6548 C   0  0  0  0  0  0  0  0  0  0  0  0
    0.4139    0.6637   -1.7025 C   0  0  0  0  0  0  0  0  0  0  0  0
    1.1416   -0.0838   -0.8855 C   0  0  0  0  0  0  0  0  0  0  0  0
    0.6914    0.1004    0.4526 C   0  0  0  0  0  0  0  0  0  0  0  0
   -0.3001    1.0476    0.7190 C   0  0  0  0  0  0  0  0  0  0  0  0
   -0.8799    1.8209   -0.3038 C   0  0  0  0  0  0  0  0  0  0  0  0
   -0.9182    2.2235   -2.4778 H   0  0  0  0  0  0  0  0  0  0  0  0
   -1.6978    2.5017   -0.0854 H   0  0  0  0  0  0  0  0  0  0  0  0
    1.1361   -0.4621    1.2691 H   0  0  0  0  0  0  0  0  0  0  0  0
    2.0691   -1.1160   -1.2594 N   0  0  0  0  0  0  0  0  0  0  0  0
    3.1182   -1.0588   -0.6838 N   0  0  0  0  0  0  0  0  0  0  0  0
    3.7675   -0.0797    0.0720 C   0  0  0  0  0  0  0  0  0  0  0  0
    4.4935   -0.5215    1.1956 C   0  0  0  0  0  0  0  0  0  0  0  0
    3.8225    1.2624   -0.3596 C   0  0  0  0  0  0  0  0  0  0  0  0
    5.1936    0.4086    1.9468 C   0  0  0  0  0  0  0  0  0  0  0  0
    4.4768   -1.5722    1.4643 H   0  0  0  0  0  0  0  0  0  0  0  0
    4.5654    2.1705    0.3821 C   0  0  0  0  0  0  0  0  0  0  0  0
    3.3336    1.5710   -1.2764 H   0  0  0  0  0  0  0  0  0  0  0  0
    5.2363    1.7528    1.5426 C   0  0  0  0  0  0  0  0  0  0  0  0
    5.7382    0.1156    2.8375 H   0  0  0  0  0  0  0  0  0  0  0  0
    4.6394    3.2036    0.0632 H   0  0  0  0  0  0  0  0  0  0  0  0
   -0.7075    1.2007    2.1590 C   0  0  0  0  0  0  0  0  0  0  0  0
   -0.1846    0.5819    3.0573 O   0  0  0  0  0  0  0  0  0  0  0  0
   -1.6990    2.0912    2.3111 O   0  0  0  0  0  0  0  0  0  0  0  0
   -1.9183    2.1380    3.2582 H   0  0  0  0  0  0  0  0  0  0  0  0
    6.0453    2.7002    2.3781 C   0  0  0  0  0  0  0  0  0  0  0  0
    6.6261    2.3665    3.3862 O   0  0  0  0  0  0  0  0  0  0  0  0
    6.0457    3.9510    1.8806 O   0  0  0  0  0  0  0  0  0  0  0  0
    6.5922    4.4977    2.4710 H   0  0  0  0  0  0  0  0  0  0  0  0
  1  6  1  0  0  0  0
  2  1  2  0  0  0  0
  2  3  1  0  0  0  0
  3  4  2  0  0  0  0
  4  5  1  0  0  0  0
  4  9  1  0  0  0  0
  5 22  1  0  0  0  0
  6  8  1  0  0  0  0
  6  5  2  0  0  0  0
  7  1  1  0  0  0  0
 10  3  1  0  0  0  0
 10 11  1  0  0  0  0
 11 12  1  0  0  0  0
 12 13  1  0  0  0  0
 13 16  1  0  0  0  0
 13 15  2  0  0  0  0
 14 12  2  0  0  0  0
 14 17  1  0  0  0  0
 15 20  1  0  0  0  0
 17 19  2  0  0  0  0
 18 14  1  0  0  0  0
 19 15  1  0  0  0  0
 19 26  1  0  0  0  0
 21 17  1  0  0  0  0
 22 24  1  0  0  0  0
 22 23  2  0  0  0  0
 24 25  1  0  0  0  0
 26 27  2  0  0  0  0
 28 26  1  0  0  0  0
 28 29  1  0  0  0  0
M  RAD  3   2   2  10   2  11   2
M  END
