Coordinates from ORCA-job 1g-Schema6-R11-K+-B3LYPG-6-31G_dp-scan-d49-09-n400
 OpenBabel08281819543D

 29 30  0  0  0  0  0  0  0  0999 V2000
   -0.8089    1.5030   -1.8280 C   0  0  0  0  0  0  0  0  0  0  0  0
    0.2554    0.6799   -1.6599 C   0  0  0  0  0  0  0  0  0  0  0  0
    0.8962    0.1150   -0.7005 C   0  0  0  0  0  0  0  0  0  0  0  0
    0.3201    0.3072    0.5698 C   0  0  0  0  0  0  0  0  0  0  0  0
   -0.8283    1.1186    0.6162 C   0  0  0  0  0  0  0  0  0  0  0  0
   -1.3826    1.6923   -0.5441 C   0  0  0  0  0  0  0  0  0  0  0  0
   -1.2151    1.9233   -2.7390 H   0  0  0  0  0  0  0  0  0  0  0  0
   -2.2880    2.2876   -0.4739 H   0  0  0  0  0  0  0  0  0  0  0  0
    0.7240   -0.1213    1.4823 H   0  0  0  0  0  0  0  0  0  0  0  0
    2.1894   -1.1621   -0.8718 N   0  0  0  0  0  0  0  0  0  0  0  0
    3.2249   -0.9578   -0.3775 N   0  0  0  0  0  0  0  0  0  0  0  0
    4.0505   -0.0410    0.2734 C   0  0  0  0  0  0  0  0  0  0  0  0
    5.1118   -0.5735    1.0254 C   0  0  0  0  0  0  0  0  0  0  0  0
    3.8470    1.3447    0.1285 C   0  0  0  0  0  0  0  0  0  0  0  0
    5.9591    0.3048    1.6849 C   0  0  0  0  0  0  0  0  0  0  0  0
    5.2444   -1.6483    1.0871 H   0  0  0  0  0  0  0  0  0  0  0  0
    4.7205    2.2039    0.7798 C   0  0  0  0  0  0  0  0  0  0  0  0
    3.0425    1.7267   -0.4877 H   0  0  0  0  0  0  0  0  0  0  0  0
    5.7675    1.6882    1.5621 C   0  0  0  0  0  0  0  0  0  0  0  0
    6.7836   -0.0562    2.2895 H   0  0  0  0  0  0  0  0  0  0  0  0
    4.6004    3.2771    0.6854 H   0  0  0  0  0  0  0  0  0  0  0  0
   -1.4306    1.3422    1.9741 C   0  0  0  0  0  0  0  0  0  0  0  0
   -0.9489    0.8975    2.9916 O   0  0  0  0  0  0  0  0  0  0  0  0
   -2.5484    2.0864    1.9221 O   0  0  0  0  0  0  0  0  0  0  0  0
   -2.8794    2.1836    2.8319 H   0  0  0  0  0  0  0  0  0  0  0  0
    6.7324    2.5840    2.2877 C   0  0  0  0  0  0  0  0  0  0  0  0
    7.6413    2.1635    2.9662 O   0  0  0  0  0  0  0  0  0  0  0  0
    6.4642    3.8870    2.0935 O   0  0  0  0  0  0  0  0  0  0  0  0
    7.1273    4.3990    2.5882 H   0  0  0  0  0  0  0  0  0  0  0  0
  1  2  2  0  0  0  0
  1  6  1  0  0  0  0
  2  3  1  0  0  0  0
  3  4  2  0  0  0  0
  4  5  1  0  0  0  0
  4  9  1  0  0  0  0
  5 22  1  0  0  0  0
  6  8  1  0  0  0  0
  6  5  2  0  0  0  0
  7  1  1  0  0  0  0
 10  3  1  0  0  0  0
 10 11  2  0  0  0  0
 11 12  1  0  0  0  0
 12 13  1  0  0  0  0
 13 16  1  0  0  0  0
 13 15  2  0  0  0  0
 14 12  2  0  0  0  0
 14 17  1  0  0  0  0
 15 20  1  0  0  0  0
 17 19  2  0  0  0  0
 18 14  1  0  0  0  0
 19 15  1  0  0  0  0
 19 26  1  0  0  0  0
 21 17  1  0  0  0  0
 22 23  2  0  0  0  0
 24 22  1  0  0  0  0
 24 25  1  0  0  0  0
 26 27  2  0  0  0  0
 28 26  1  0  0  0  0
 28 29  1  0  0  0  0
M  RAD  1   2   2
M  END
