Coordinates from ORCA-job 1g-Schema6-R11-K+-B3LYPG-6-31G_dp-scan-d49-09-n400
 OpenBabel08281819543D

 29 32  0  0  1  0  0  0  0  0999 V2000
    0.9184    2.4516    0.5291 C   0  0  0  0  0  0  0  0  0  0  0  0
    1.8989    1.4642    0.5788 C   0  0  2  0  0  0  0  0  0  0  0  0
    1.5347   -0.0021    0.6133 C   0  0  1  0  0  0  0  0  0  0  0  0
    0.1059   -0.3108    0.8729 C   0  0  0  0  0  0  0  0  0  0  0  0
   -0.8157    0.6906    0.7963 C   0  0  0  0  0  0  0  0  0  0  0  0
   -0.4110    2.0583    0.6193 C   0  0  0  0  0  0  0  0  0  0  0  0
    1.1766    3.5049    0.4914 H   0  0  0  0  0  0  0  0  0  0  0  0
   -1.1910    2.8127    0.6034 H   0  0  0  0  0  0  0  0  0  0  0  0
   -0.1981   -1.3467    0.9899 H   0  0  0  0  0  0  0  0  0  0  0  0
    1.9816   -0.8614   -0.5834 N   0  0  0  0  0  0  0  0  0  0  0  0
    2.4782   -0.7018    0.8085 N   0  0  0  0  0  0  0  0  0  0  0  0
    3.6723    0.0836    0.9021 C   0  0  0  0  0  0  0  0  0  0  0  0
    4.9805   -0.3453    1.0362 C   0  0  0  0  0  0  0  0  0  0  0  0
    3.3120    1.4578    0.7774 C   0  0  0  0  0  0  0  0  0  0  0  0
    5.9512    0.6566    1.0889 C   0  0  0  0  0  0  0  0  0  0  0  0
    5.2332   -1.3960    1.1207 H   0  0  0  0  0  0  0  0  0  0  0  0
    4.3064    2.4522    0.8371 C   0  0  0  0  0  0  0  0  0  0  0  0
    2.5474   -0.2150   -1.1594 H   0  0  0  0  0  0  0  0  0  0  0  0
    5.6229    2.0318    0.9945 C   0  0  0  0  0  0  0  0  0  0  0  0
    6.9988    0.4036    1.2180 H   0  0  0  0  0  0  0  0  0  0  0  0
    4.0705    3.5084    0.7728 H   0  0  0  0  0  0  0  0  0  0  0  0
   -2.2661    0.3119    0.9443 C   0  0  0  0  0  0  0  0  0  0  0  0
   -2.6365   -0.8262    1.1047 O   0  0  0  0  0  0  0  0  0  0  0  0
   -3.0710    1.3855    0.8798 O   0  0  0  0  0  0  0  0  0  0  0  0
   -3.9883    1.0778    0.9871 H   0  0  0  0  0  0  0  0  0  0  0  0
    6.7630    3.0068    1.0788 C   0  0  0  0  0  0  0  0  0  0  0  0
    7.9162    2.6675    1.2109 O   0  0  0  0  0  0  0  0  0  0  0  0
    6.3475    4.2827    0.9900 O   0  0  0  0  0  0  0  0  0  0  0  0
    7.1340    4.8520    1.0534 H   0  0  0  0  0  0  0  0  0  0  0  0
  1  6  2  0  0  0  0
  2  1  1  1  0  0  0
  2  3  1  0  0  0  0
  2 14  1  0  0  0  0
  3 10  1  6  0  0  0
  3 11  1  0  0  0  0
  3  4  1  0  0  0  0
  4  9  1  0  0  0  0
  5  4  2  0  0  0  0
  5 22  1  0  0  0  0
  6  5  1  0  0  0  0
  7  1  1  0  0  0  0
  8  6  1  0  0  0  0
 10 11  1  0  0  0  0
 11 12  1  0  0  0  0
 12 13  2  0  0  0  0
 13 15  1  0  0  0  0
 13 16  1  0  0  0  0
 14 17  2  0  0  0  0
 14 12  1  0  0  0  0
 15 20  1  0  0  0  0
 17 19  1  0  0  0  0
 18 10  1  0  0  0  0
 19 26  1  0  0  0  0
 19 15  2  0  0  0  0
 21 17  1  0  0  0  0
 22 23  2  0  0  0  0
 24 22  1  0  0  0  0
 24 25  1  0  0  0  0
 26 27  2  0  0  0  0
 28 29  1  0  0  0  0
 28 26  1  0  0  0  0
M  RAD  1   2   2
M  END
