Coordinates from ORCA-job 1g-Schema6-R11-K+-B3LYPG-6-31G_dp-scan-d49-09-n400
 OpenBabel08281819543D

 29 29  0  0  0  0  0  0  0  0999 V2000
   -0.9789    1.5713   -1.7899 C   0  0  0  0  0  0  0  0  0  0  0  0
    0.1544    1.0268   -1.2415 C   0  0  0  0  0  0  0  0  0  0  0  0
    0.4649    0.5950   -0.1014 C   0  0  0  0  0  0  0  0  0  0  0  0
   -0.4738    0.6174    0.9340 C   0  0  0  0  0  0  0  0  0  0  0  0
   -1.7195    1.1601    0.5403 C   0  0  0  0  0  0  0  0  0  0  0  0
   -1.9610    1.6178   -0.7732 C   0  0  0  0  0  0  0  0  0  0  0  0
   -1.1474    1.9190   -2.8006 H   0  0  0  0  0  0  0  0  0  0  0  0
   -2.9373    2.0231   -1.0181 H   0  0  0  0  0  0  0  0  0  0  0  0
   -0.3303    0.2685    1.9501 H   0  0  0  0  0  0  0  0  0  0  0  0
    2.5180   -1.2691   -0.1250 N   0  0  0  0  0  0  0  0  0  0  0  0
    3.4615   -0.7668    0.2083 N   0  0  0  0  0  0  0  0  0  0  0  0
    4.5079    0.0285    0.6286 C   0  0  0  0  0  0  0  0  0  0  0  0
    5.7760   -0.5524    0.8151 C   0  0  0  0  0  0  0  0  0  0  0  0
    4.2218    1.3910    0.8458 C   0  0  0  0  0  0  0  0  0  0  0  0
    6.7957    0.2843    1.2396 C   0  0  0  0  0  0  0  0  0  0  0  0
    5.9384   -1.6085    0.6311 H   0  0  0  0  0  0  0  0  0  0  0  0
    5.2670    2.1975    1.2713 C   0  0  0  0  0  0  0  0  0  0  0  0
    3.2197    1.7732    0.6805 H   0  0  0  0  0  0  0  0  0  0  0  0
    6.5452    1.6476    1.4666 C   0  0  0  0  0  0  0  0  0  0  0  0
    7.7986   -0.0940    1.4043 H   0  0  0  0  0  0  0  0  0  0  0  0
    5.1002    3.2522    1.4554 H   0  0  0  0  0  0  0  0  0  0  0  0
   -2.7781    1.2228    1.5981 C   0  0  0  0  0  0  0  0  0  0  0  0
   -2.6101    0.8572    2.7418 O   0  0  0  0  0  0  0  0  0  0  0  0
   -3.9419    1.7304    1.1430 O   0  0  0  0  0  0  0  0  0  0  0  0
   -4.5627    1.7289    1.8916 H   0  0  0  0  0  0  0  0  0  0  0  0
    7.7096    2.4865    1.9266 C   0  0  0  0  0  0  0  0  0  0  0  0
    8.8150    2.0284    2.0992 O   0  0  0  0  0  0  0  0  0  0  0  0
    7.3644    3.7680    2.1184 O   0  0  0  0  0  0  0  0  0  0  0  0
    8.1551    4.2508    2.4170 H   0  0  0  0  0  0  0  0  0  0  0  0
  1  2  2  0  0  0  0
  1  6  1  0  0  0  0
  2  3  1  0  0  0  0
  3  4  2  0  0  0  0
  4  9  1  0  0  0  0
  5  4  1  0  0  0  0
  5 22  1  0  0  0  0
  6  5  2  0  0  0  0
  7  1  1  0  0  0  0
  8  6  1  0  0  0  0
 10 11  1  0  0  0  0
 11 12  1  0  0  0  0
 12 13  2  0  0  0  0
 12 14  1  0  0  0  0
 13 15  1  0  0  0  0
 14 17  2  0  0  0  0
 15 20  1  0  0  0  0
 15 19  2  0  0  0  0
 16 13  1  0  0  0  0
 17 21  1  0  0  0  0
 17 19  1  0  0  0  0
 18 14  1  0  0  0  0
 19 26  1  0  0  0  0
 22 23  2  0  0  0  0
 24 22  1  0  0  0  0
 24 25  1  0  0  0  0
 26 27  2  0  0  0  0
 26 28  1  0  0  0  0
 28 29  1  0  0  0  0
M  RAD  4   2   2   3   2  10   3  11   2
M  END
