Coordinates from ORCA-job 1g-Schema6-R11-K+-B3LYPG-6-31G_dp-scan-d49-09-n400
 OpenBabel08281819543D

 29 31  0  0  1  0  0  0  0  0999 V2000
    1.2113    2.1370    0.5792 C   0  0  0  0  0  0  0  0  0  0  0  0
    1.9468    1.0099    0.2550 C   0  0  0  0  0  0  0  0  0  0  0  0
    1.3060   -0.2548    0.2072 C   0  0  0  0  0  0  0  0  0  0  0  0
   -0.0706   -0.3474    0.4830 C   0  0  0  0  0  0  0  0  0  0  0  0
   -0.7922    0.7823    0.8674 C   0  0  0  0  0  0  0  0  0  0  0  0
   -0.1483    2.0221    0.9172 C   0  0  0  0  0  0  0  0  0  0  0  0
    1.6820    3.1144    0.5954 H   0  0  0  0  0  0  0  0  0  0  0  0
   -0.7037    2.9027    1.2200 H   0  0  0  0  0  0  0  0  0  0  0  0
   -0.5700   -1.3083    0.4054 H   0  0  0  0  0  0  0  0  0  0  0  0
    1.9181   -1.3928   -0.2250 N   0  0  0  0  0  0  0  0  0  0  0  0
    3.1367   -1.3292   -0.0028 N   0  0  0  0  0  0  0  0  0  0  0  0
    3.9110   -0.2780    0.2853 C   0  0  0  0  0  0  0  0  0  0  0  0
    5.0638   -0.4187    1.0745 C   0  0  0  0  0  0  0  0  0  0  0  0
    3.4220    1.0445   -0.1908 C   0  0  2  0  0  0  0  0  0  0  0  0
    5.7686    0.7166    1.4163 C   0  0  0  0  0  0  0  0  0  0  0  0
    5.3573   -1.4032    1.4212 H   0  0  0  0  0  0  0  0  0  0  0  0
    4.2756    2.2009    0.1987 C   0  0  0  0  0  0  0  0  0  0  0  0
    3.3798    1.0660   -1.2985 H   0  0  0  0  0  0  0  0  0  0  0  0
    5.3839    2.0283    0.9670 C   0  0  0  0  0  0  0  0  0  0  0  0
    6.6549    0.6517    2.0412 H   0  0  0  0  0  0  0  0  0  0  0  0
    4.0394    3.1788   -0.2078 H   0  0  0  0  0  0  0  0  0  0  0  0
   -2.2466    0.6054    1.1912 C   0  0  0  0  0  0  0  0  0  0  0  0
   -2.8113   -0.4627    1.1342 O   0  0  0  0  0  0  0  0  0  0  0  0
   -2.8312    1.7623    1.5482 O   0  0  0  0  0  0  0  0  0  0  0  0
   -3.7645    1.5710    1.7453 H   0  0  0  0  0  0  0  0  0  0  0  0
    6.2756    3.1682    1.3784 C   0  0  0  0  0  0  0  0  0  0  0  0
    7.2464    3.0127    2.0814 O   0  0  0  0  0  0  0  0  0  0  0  0
    5.8575    4.3428    0.8833 O   0  0  0  0  0  0  0  0  0  0  0  0
    6.4742    5.0324    1.1860 H   0  0  0  0  0  0  0  0  0  0  0  0
  1  7  1  0  0  0  0
  1  6  2  0  0  0  0
  2  1  1  0  0  0  0
  3  2  2  0  0  0  0
  3  4  1  0  0  0  0
  4  5  2  0  0  0  0
  5  6  1  0  0  0  0
  5 22  1  0  0  0  0
  6  8  1  0  0  0  0
  9  4  1  0  0  0  0
 10 11  1  0  0  0  0
 10  3  1  0  0  0  0
 11 12  1  0  0  0  0
 12 13  2  0  0  0  0
 13 15  1  0  0  0  0
 13 16  1  0  0  0  0
 14 18  1  6  0  0  0
 14 17  1  0  0  0  0
 14  2  1  0  0  0  0
 14 12  1  0  0  0  0
 15 20  1  0  0  0  0
 17 19  2  0  0  0  0
 19 26  1  0  0  0  0
 19 15  1  0  0  0  0
 21 17  1  0  0  0  0
 22 24  1  0  0  0  0
 23 22  2  0  0  0  0
 24 25  1  0  0  0  0
 26 27  2  0  0  0  0
 28 29  1  0  0  0  0
 28 26  1  0  0  0  0
M  RAD  3  10   2  11   2  15   2
M  END
