Coordinates from ORCA-job 1g-Schema6-R11-K+-B3LYPG-6-31G_dp-scan-d49-09-n400
 OpenBabel08281819543D

 29 29  0  0  0  0  0  0  0  0999 V2000
   -0.8283    2.0723   -1.6865 C   0  0  0  0  0  0  0  0  0  0  0  0
    0.3725    1.6611   -1.1614 C   0  0  0  0  0  0  0  0  0  0  0  0
    0.7376    1.2341   -0.0385 C   0  0  0  0  0  0  0  0  0  0  0  0
   -0.1888    1.1032    0.9992 C   0  0  0  0  0  0  0  0  0  0  0  0
   -1.4983    1.4888    0.6259 C   0  0  0  0  0  0  0  0  0  0  0  0
   -1.8039    1.9566   -0.6707 C   0  0  0  0  0  0  0  0  0  0  0  0
   -1.0456    2.4309   -2.6840 H   0  0  0  0  0  0  0  0  0  0  0  0
   -2.8255    2.2417   -0.8996 H   0  0  0  0  0  0  0  0  0  0  0  0
    0.0055    0.7512    2.0058 H   0  0  0  0  0  0  0  0  0  0  0  0
    3.3088   -2.4301   -0.3240 N   0  0  0  0  0  0  0  0  0  0  0  0
    3.9305   -1.5823    0.0481 N   0  0  0  0  0  0  0  0  0  0  0  0
    4.6948   -0.5329    0.5080 C   0  0  0  0  0  0  0  0  0  0  0  0
    6.0480   -0.7865    0.8209 C   0  0  0  0  0  0  0  0  0  0  0  0
    4.0694    0.7234    0.6362 C   0  0  0  0  0  0  0  0  0  0  0  0
    6.7936    0.2829    1.2838 C   0  0  0  0  0  0  0  0  0  0  0  0
    6.4746   -1.7763    0.7013 H   0  0  0  0  0  0  0  0  0  0  0  0
    4.8540    1.7685    1.1035 C   0  0  0  0  0  0  0  0  0  0  0  0
    3.0177    0.8576    0.3793 H   0  0  0  0  0  0  0  0  0  0  0  0
    6.2033    1.5515    1.4251 C   0  0  0  0  0  0  0  0  0  0  0  0
    7.8392    0.1635    1.5460 H   0  0  0  0  0  0  0  0  0  0  0  0
    4.4222    2.7555    1.2222 H   0  0  0  0  0  0  0  0  0  0  0  0
   -2.5499    1.3738    1.6841 C   0  0  0  0  0  0  0  0  0  0  0  0
   -2.3366    0.9741    2.8094 O   0  0  0  0  0  0  0  0  0  0  0  0
   -3.7701    1.7601    1.2560 O   0  0  0  0  0  0  0  0  0  0  0  0
   -4.3780    1.6499    2.0068 H   0  0  0  0  0  0  0  0  0  0  0  0
    7.0884    2.6594    1.9376 C   0  0  0  0  0  0  0  0  0  0  0  0
    8.2510    2.4849    2.2190 O   0  0  0  0  0  0  0  0  0  0  0  0
    6.4325    3.8240    2.0343 O   0  0  0  0  0  0  0  0  0  0  0  0
    7.0537    4.4943    2.3695 H   0  0  0  0  0  0  0  0  0  0  0  0
  1  2  2  0  0  0  0
  1  6  1  0  0  0  0
  2  3  1  0  0  0  0
  3  4  2  0  0  0  0
  4  9  1  0  0  0  0
  5  4  1  0  0  0  0
  5 22  1  0  0  0  0
  6  5  2  0  0  0  0
  7  1  1  0  0  0  0
  8  6  1  0  0  0  0
 10 11  1  0  0  0  0
 11 12  1  0  0  0  0
 12 14  2  0  0  0  0
 12 13  1  0  0  0  0
 13 15  2  0  0  0  0
 14 17  1  0  0  0  0
 15 19  1  0  0  0  0
 15 20  1  0  0  0  0
 16 13  1  0  0  0  0
 17 21  1  0  0  0  0
 17 19  2  0  0  0  0
 18 14  1  0  0  0  0
 19 26  1  0  0  0  0
 22 23  2  0  0  0  0
 24 22  1  0  0  0  0
 24 25  1  0  0  0  0
 26 28  1  0  0  0  0
 26 27  2  0  0  0  0
 28 29  1  0  0  0  0
M  RAD  4   2   2   3   2  10   3  11   2
M  END
