Coordinates from ORCA-job 1g-Schema6-R11-K+-B3LYPG-6-31G_dp-scan-d49-09-n400
 OpenBabel08281819543D

 29 31  0  0  1  0  0  0  0  0999 V2000
    1.2592    2.1261    0.5264 C   0  0  0  0  0  0  0  0  0  0  0  0
    1.9793    1.0099    0.1434 C   0  0  0  0  0  0  0  0  0  0  0  0
    1.3445   -0.2648    0.1020 C   0  0  0  0  0  0  0  0  0  0  0  0
   -0.0221   -0.3444    0.4349 C   0  0  0  0  0  0  0  0  0  0  0  0
   -0.7255    0.7735    0.8885 C   0  0  0  0  0  0  0  0  0  0  0  0
   -0.0830    2.0107    0.9314 C   0  0  0  0  0  0  0  0  0  0  0  0
    1.7369    3.1003    0.5364 H   0  0  0  0  0  0  0  0  0  0  0  0
   -0.6194    2.8864    1.2789 H   0  0  0  0  0  0  0  0  0  0  0  0
   -0.5362   -1.2975    0.3509 H   0  0  0  0  0  0  0  0  0  0  0  0
    1.8975   -1.3858   -0.4050 N   0  0  0  0  0  0  0  0  0  0  0  0
    3.0642   -1.2341   -0.0830 N   0  0  0  0  0  0  0  0  0  0  0  0
    3.8835   -0.2641    0.2274 C   0  0  0  0  0  0  0  0  0  0  0  0
    4.9317   -0.3959    1.1671 C   0  0  0  0  0  0  0  0  0  0  0  0
    3.4506    1.0573   -0.3295 C   0  0  2  0  0  0  0  0  0  0  0  0
    5.6183    0.7348    1.5313 C   0  0  0  0  0  0  0  0  0  0  0  0
    5.1525   -1.3680    1.5925 H   0  0  0  0  0  0  0  0  0  0  0  0
    4.3116    2.2012    0.0856 C   0  0  0  0  0  0  0  0  0  0  0  0
    3.4159    1.0558   -1.4331 H   0  0  0  0  0  0  0  0  0  0  0  0
    5.3208    2.0352    0.9777 C   0  0  0  0  0  0  0  0  0  0  0  0
    6.4288    0.6823    2.2526 H   0  0  0  0  0  0  0  0  0  0  0  0
    4.1617    3.1600   -0.3999 H   0  0  0  0  0  0  0  0  0  0  0  0
   -2.1607    0.5818    1.2807 C   0  0  0  0  0  0  0  0  0  0  0  0
   -2.7237   -0.4876    1.2257 O   0  0  0  0  0  0  0  0  0  0  0  0
   -2.7308    1.7265    1.6951 O   0  0  0  0  0  0  0  0  0  0  0  0
   -3.6527    1.5263    1.9329 H   0  0  0  0  0  0  0  0  0  0  0  0
    6.2053    3.1674    1.4217 C   0  0  0  0  0  0  0  0  0  0  0  0
    7.0962    3.0209    2.2258 O   0  0  0  0  0  0  0  0  0  0  0  0
    5.8792    4.3291    0.8341 O   0  0  0  0  0  0  0  0  0  0  0  0
    6.4888    5.0121    1.1646 H   0  0  0  0  0  0  0  0  0  0  0  0
  1  7  1  0  0  0  0
  1  6  2  0  0  0  0
  2  1  1  0  0  0  0
  3  2  2  0  0  0  0
  3  4  1  0  0  0  0
  4  5  2  0  0  0  0
  5  6  1  0  0  0  0
  5 22  1  0  0  0  0
  6  8  1  0  0  0  0
  9  4  1  0  0  0  0
 10 11  1  0  0  0  0
 10  3  1  0  0  0  0
 11 12  1  0  0  0  0
 12 13  2  0  0  0  0
 13 15  1  0  0  0  0
 13 16  1  0  0  0  0
 14 18  1  6  0  0  0
 14 17  1  0  0  0  0
 14  2  1  0  0  0  0
 14 12  1  0  0  0  0
 15 20  1  0  0  0  0
 17 19  2  0  0  0  0
 19 26  1  0  0  0  0
 19 15  1  0  0  0  0
 21 17  1  0  0  0  0
 22 24  1  0  0  0  0
 23 22  2  0  0  0  0
 24 25  1  0  0  0  0
 26 27  2  0  0  0  0
 28 29  1  0  0  0  0
 28 26  1  0  0  0  0
M  RAD  3  10   2  11   2  15   2
M  END
