Coordinates from ORCA-job 1g-Schema6-R11-K+-B3LYPG-6-31G_dp-scan-d49-09-n400
 OpenBabel08281819543D

 29 30  0  0  0  0  0  0  0  0999 V2000
   -0.5077    1.6533   -1.6723 C   0  0  0  0  0  0  0  0  0  0  0  0
    0.3882    0.6485   -1.7124 C   0  0  0  0  0  0  0  0  0  0  0  0
    1.1311   -0.0754   -0.8875 C   0  0  0  0  0  0  0  0  0  0  0  0
    0.6874    0.1228    0.4510 C   0  0  0  0  0  0  0  0  0  0  0  0
   -0.3173    1.0579    0.7094 C   0  0  0  0  0  0  0  0  0  0  0  0
   -0.9150    1.8065   -0.3215 C   0  0  0  0  0  0  0  0  0  0  0  0
   -0.9723    2.1763   -2.5003 H   0  0  0  0  0  0  0  0  0  0  0  0
   -1.7452    2.4743   -0.1090 H   0  0  0  0  0  0  0  0  0  0  0  0
    1.1505   -0.4159    1.2732 H   0  0  0  0  0  0  0  0  0  0  0  0
    2.0735   -1.1037   -1.2498 N   0  0  0  0  0  0  0  0  0  0  0  0
    3.1260   -1.0574   -0.6772 N   0  0  0  0  0  0  0  0  0  0  0  0
    3.7819   -0.0805    0.0778 C   0  0  0  0  0  0  0  0  0  0  0  0
    4.5290   -0.5312    1.1835 C   0  0  0  0  0  0  0  0  0  0  0  0
    3.8175    1.2679   -0.3354 C   0  0  0  0  0  0  0  0  0  0  0  0
    5.2328    0.3945    1.9371 C   0  0  0  0  0  0  0  0  0  0  0  0
    4.5256   -1.5858    1.4372 H   0  0  0  0  0  0  0  0  0  0  0  0
    4.5636    2.1723    0.4076 C   0  0  0  0  0  0  0  0  0  0  0  0
    3.3115    1.5854   -1.2398 H   0  0  0  0  0  0  0  0  0  0  0  0
    5.2565    1.7443    1.5515 C   0  0  0  0  0  0  0  0  0  0  0  0
    5.7943    0.0941    2.8147 H   0  0  0  0  0  0  0  0  0  0  0  0
    4.6233    3.2105    0.1025 H   0  0  0  0  0  0  0  0  0  0  0  0
   -0.7173    1.2277    2.1496 C   0  0  0  0  0  0  0  0  0  0  0  0
   -0.1770    0.6336    3.0542 O   0  0  0  0  0  0  0  0  0  0  0  0
   -1.7224    2.1042    2.2942 O   0  0  0  0  0  0  0  0  0  0  0  0
   -1.9353    2.1636    3.2420 H   0  0  0  0  0  0  0  0  0  0  0  0
    6.0698    2.6876    2.3878 C   0  0  0  0  0  0  0  0  0  0  0  0
    6.6701    2.3451    3.3813 O   0  0  0  0  0  0  0  0  0  0  0  0
    6.0494    3.9455    1.9091 O   0  0  0  0  0  0  0  0  0  0  0  0
    6.5999    4.4890    2.4988 H   0  0  0  0  0  0  0  0  0  0  0  0
  1  6  1  0  0  0  0
  2  1  2  0  0  0  0
  2  3  1  0  0  0  0
  3  4  2  0  0  0  0
  4  5  1  0  0  0  0
  4  9  1  0  0  0  0
  5 22  1  0  0  0  0
  6  8  1  0  0  0  0
  6  5  2  0  0  0  0
  7  1  1  0  0  0  0
 10  3  1  0  0  0  0
 10 11  1  0  0  0  0
 11 12  1  0  0  0  0
 12 13  1  0  0  0  0
 13 16  1  0  0  0  0
 13 15  2  0  0  0  0
 14 12  2  0  0  0  0
 14 17  1  0  0  0  0
 15 20  1  0  0  0  0
 17 19  2  0  0  0  0
 18 14  1  0  0  0  0
 19 15  1  0  0  0  0
 19 26  1  0  0  0  0
 21 17  1  0  0  0  0
 22 24  1  0  0  0  0
 22 23  2  0  0  0  0
 24 25  1  0  0  0  0
 26 27  2  0  0  0  0
 28 26  1  0  0  0  0
 28 29  1  0  0  0  0
M  RAD  3   2   2  10   2  11   2
M  END
