Coordinates from ORCA-job 1g-Schema6-R11-K+-B3LYPG-6-31G_dp-scan-d49-09-n400
 OpenBabel08281819543D

 29 29  0  0  0  0  0  0  0  0999 V2000
   -0.9142    1.9980   -1.7363 C   0  0  0  0  0  0  0  0  0  0  0  0
    0.3240    1.6864   -1.2312 C   0  0  0  0  0  0  0  0  0  0  0  0
    0.7459    1.2970   -0.1141 C   0  0  0  0  0  0  0  0  0  0  0  0
   -0.1481    1.1066    0.9433 C   0  0  0  0  0  0  0  0  0  0  0  0
   -1.4909    1.3850    0.5938 C   0  0  0  0  0  0  0  0  0  0  0  0
   -1.8575    1.8160   -0.6996 C   0  0  0  0  0  0  0  0  0  0  0  0
   -1.1777    2.3311   -2.7315 H   0  0  0  0  0  0  0  0  0  0  0  0
   -2.9024    2.0205   -0.9093 H   0  0  0  0  0  0  0  0  0  0  0  0
    0.0923    0.7821    1.9493 H   0  0  0  0  0  0  0  0  0  0  0  0
    2.9211   -2.0286   -0.2907 N   0  0  0  0  0  0  0  0  0  0  0  0
    3.6471   -1.2680    0.0803 N   0  0  0  0  0  0  0  0  0  0  0  0
    4.5358   -0.3206    0.5392 C   0  0  0  0  0  0  0  0  0  0  0  0
    5.8175   -0.7501    0.9454 C   0  0  0  0  0  0  0  0  0  0  0  0
    4.0961    1.0179    0.5721 C   0  0  0  0  0  0  0  0  0  0  0  0
    6.6856    0.2244    1.4051 C   0  0  0  0  0  0  0  0  0  0  0  0
    6.1003   -1.7958    0.8968 H   0  0  0  0  0  0  0  0  0  0  0  0
    4.9976    1.9630    1.0410 C   0  0  0  0  0  0  0  0  0  0  0  0
    3.0880    1.2721    0.2460 H   0  0  0  0  0  0  0  0  0  0  0  0
    6.2811    1.5704    1.4539 C   0  0  0  0  0  0  0  0  0  0  0  0
    7.6867   -0.0299    1.7354 H   0  0  0  0  0  0  0  0  0  0  0  0
    4.7104    3.0068    1.0902 H   0  0  0  0  0  0  0  0  0  0  0  0
   -2.5094    1.1969    1.6741 C   0  0  0  0  0  0  0  0  0  0  0  0
   -2.2434    0.8165    2.7949 O   0  0  0  0  0  0  0  0  0  0  0  0
   -3.7626    1.4926    1.2713 O   0  0  0  0  0  0  0  0  0  0  0  0
   -4.3457    1.3409    2.0345 H   0  0  0  0  0  0  0  0  0  0  0  0
    7.2898    2.5648    1.9709 C   0  0  0  0  0  0  0  0  0  0  0  0
    8.3983    2.2404    2.3282 O   0  0  0  0  0  0  0  0  0  0  0  0
    6.8065    3.8146    1.9802 O   0  0  0  0  0  0  0  0  0  0  0  0
    7.5004    4.4045    2.3240 H   0  0  0  0  0  0  0  0  0  0  0  0
  1  2  2  0  0  0  0
  1  6  1  0  0  0  0
  2  3  1  0  0  0  0
  3  4  2  0  0  0  0
  4  9  1  0  0  0  0
  5  4  1  0  0  0  0
  5 22  1  0  0  0  0
  6  5  2  0  0  0  0
  7  1  1  0  0  0  0
  8  6  1  0  0  0  0
 10 11  1  0  0  0  0
 11 12  1  0  0  0  0
 12 14  2  0  0  0  0
 12 13  1  0  0  0  0
 13 15  2  0  0  0  0
 14 17  1  0  0  0  0
 15 19  1  0  0  0  0
 15 20  1  0  0  0  0
 16 13  1  0  0  0  0
 17 21  1  0  0  0  0
 17 19  2  0  0  0  0
 18 14  1  0  0  0  0
 19 26  1  0  0  0  0
 22 23  2  0  0  0  0
 24 22  1  0  0  0  0
 24 25  1  0  0  0  0
 26 28  1  0  0  0  0
 26 27  2  0  0  0  0
 28 29  1  0  0  0  0
M  RAD  4   2   2   3   2  10   3  11   2
M  END
