Coordinates from ORCA-job 1g-Schema6-R11-K+-B3LYPG-6-31G_dp-scan-d49-09-n400
 OpenBabel08281819543D

 29 29  0  0  0  0  0  0  0  0999 V2000
   -0.8741    2.0127   -1.7213 C   0  0  0  0  0  0  0  0  0  0  0  0
    0.3493    1.6349   -1.2242 C   0  0  0  0  0  0  0  0  0  0  0  0
    0.7581    1.2441   -0.1031 C   0  0  0  0  0  0  0  0  0  0  0  0
   -0.1326    1.1276    0.9672 C   0  0  0  0  0  0  0  0  0  0  0  0
   -1.4596    1.4824    0.6266 C   0  0  0  0  0  0  0  0  0  0  0  0
   -1.8144    1.9098   -0.6713 C   0  0  0  0  0  0  0  0  0  0  0  0
   -1.1289    2.3410   -2.7203 H   0  0  0  0  0  0  0  0  0  0  0  0
   -2.8473    2.1733   -0.8742 H   0  0  0  0  0  0  0  0  0  0  0  0
    0.0998    0.8065    1.9761 H   0  0  0  0  0  0  0  0  0  0  0  0
    3.2681   -2.3610   -0.4196 N   0  0  0  0  0  0  0  0  0  0  0  0
    3.8955   -1.5292   -0.0222 N   0  0  0  0  0  0  0  0  0  0  0  0
    4.6664   -0.4989    0.4692 C   0  0  0  0  0  0  0  0  0  0  0  0
    5.9936   -0.7875    0.8539 C   0  0  0  0  0  0  0  0  0  0  0  0
    4.0705    0.7757    0.5552 C   0  0  0  0  0  0  0  0  0  0  0  0
    6.7435    0.2654    1.3471 C   0  0  0  0  0  0  0  0  0  0  0  0
    6.3982   -1.7896    0.7643 H   0  0  0  0  0  0  0  0  0  0  0  0
    4.8582    1.8029    1.0556 C   0  0  0  0  0  0  0  0  0  0  0  0
    3.0360    0.9298    0.2441 H   0  0  0  0  0  0  0  0  0  0  0  0
    6.1824    1.5510    1.4481 C   0  0  0  0  0  0  0  0  0  0  0  0
    7.7705    0.1198    1.6637 H   0  0  0  0  0  0  0  0  0  0  0  0
    4.4489    2.8025    1.1449 H   0  0  0  0  0  0  0  0  0  0  0  0
   -2.4745    1.3802    1.7214 C   0  0  0  0  0  0  0  0  0  0  0  0
   -2.2184    1.0132    2.8490 O   0  0  0  0  0  0  0  0  0  0  0  0
   -3.7134    1.7382    1.3241 O   0  0  0  0  0  0  0  0  0  0  0  0
   -4.2949    1.6395    2.0971 H   0  0  0  0  0  0  0  0  0  0  0  0
    7.0708    2.6384    1.9976 C   0  0  0  0  0  0  0  0  0  0  0  0
    8.2109    2.4336    2.3431 O   0  0  0  0  0  0  0  0  0  0  0  0
    6.4441    3.8217    2.0512 O   0  0  0  0  0  0  0  0  0  0  0  0
    7.0657    4.4771    2.4141 H   0  0  0  0  0  0  0  0  0  0  0  0
  1  2  2  0  0  0  0
  1  6  1  0  0  0  0
  2  3  1  0  0  0  0
  3  4  2  0  0  0  0
  4  9  1  0  0  0  0
  5  4  1  0  0  0  0
  5 22  1  0  0  0  0
  6  5  2  0  0  0  0
  7  1  1  0  0  0  0
  8  6  1  0  0  0  0
 10 11  1  0  0  0  0
 11 12  1  0  0  0  0
 12 14  2  0  0  0  0
 12 13  1  0  0  0  0
 13 15  2  0  0  0  0
 14 17  1  0  0  0  0
 15 19  1  0  0  0  0
 15 20  1  0  0  0  0
 16 13  1  0  0  0  0
 17 21  1  0  0  0  0
 17 19  2  0  0  0  0
 18 14  1  0  0  0  0
 19 26  1  0  0  0  0
 22 23  2  0  0  0  0
 24 22  1  0  0  0  0
 24 25  1  0  0  0  0
 26 28  1  0  0  0  0
 26 27  2  0  0  0  0
 28 29  1  0  0  0  0
M  RAD  4   2   2   3   2  10   3  11   2
M  END
