Coordinates from ORCA-job 1g-Schema6-R11-K+-B3LYPG-6-31G_dp-scan-d49-09-n400
 OpenBabel08281819543D

 29 29  0  0  0  0  0  0  0  0999 V2000
   -0.7687    2.1102   -1.6471 C   0  0  0  0  0  0  0  0  0  0  0  0
    0.4048    1.5932   -1.1516 C   0  0  0  0  0  0  0  0  0  0  0  0
    0.7464    1.1380   -0.0330 C   0  0  0  0  0  0  0  0  0  0  0  0
   -0.1593    1.0876    1.0274 C   0  0  0  0  0  0  0  0  0  0  0  0
   -1.4367    1.5903    0.6813 C   0  0  0  0  0  0  0  0  0  0  0  0
   -1.7275    2.0831   -0.6096 C   0  0  0  0  0  0  0  0  0  0  0  0
   -0.9769    2.4857   -2.6405 H   0  0  0  0  0  0  0  0  0  0  0  0
   -2.7249    2.4569   -0.8162 H   0  0  0  0  0  0  0  0  0  0  0  0
    0.0253    0.7182    2.0294 H   0  0  0  0  0  0  0  0  0  0  0  0
    3.7638   -2.7682   -0.4989 N   0  0  0  0  0  0  0  0  0  0  0  0
    4.2535   -1.8523   -0.0923 N   0  0  0  0  0  0  0  0  0  0  0  0
    4.8556   -0.7203    0.4100 C   0  0  0  0  0  0  0  0  0  0  0  0
    6.2113   -0.8104    0.7955 C   0  0  0  0  0  0  0  0  0  0  0  0
    4.0774    0.4509    0.5063 C   0  0  0  0  0  0  0  0  0  0  0  0
    6.7968    0.3375    1.2990 C   0  0  0  0  0  0  0  0  0  0  0  0
    6.7604   -1.7405    0.6981 H   0  0  0  0  0  0  0  0  0  0  0  0
    4.7041    1.5790    1.0169 C   0  0  0  0  0  0  0  0  0  0  0  0
    3.0321    0.4740    0.1981 H   0  0  0  0  0  0  0  0  0  0  0  0
    6.0509    1.5245    1.4098 C   0  0  0  0  0  0  0  0  0  0  0  0
    7.8337    0.3436    1.6162 H   0  0  0  0  0  0  0  0  0  0  0  0
    4.1481    2.5045    1.1127 H   0  0  0  0  0  0  0  0  0  0  0  0
   -2.4701    1.5723    1.7630 C   0  0  0  0  0  0  0  0  0  0  0  0
   -2.2679    1.1596    2.8857 O   0  0  0  0  0  0  0  0  0  0  0  0
   -3.6607    2.0648    1.3603 O   0  0  0  0  0  0  0  0  0  0  0  0
   -4.2587    2.0104    2.1251 H   0  0  0  0  0  0  0  0  0  0  0  0
    6.7683    2.7271    1.9690 C   0  0  0  0  0  0  0  0  0  0  0  0
    7.9276    2.6910    2.3096 O   0  0  0  0  0  0  0  0  0  0  0  0
    5.9729    3.8035    2.0329 O   0  0  0  0  0  0  0  0  0  0  0  0
    6.4910    4.5413    2.4000 H   0  0  0  0  0  0  0  0  0  0  0  0
  1  2  2  0  0  0  0
  1  6  1  0  0  0  0
  2  3  1  0  0  0  0
  3  4  2  0  0  0  0
  4  9  1  0  0  0  0
  5  4  1  0  0  0  0
  5 22  1  0  0  0  0
  6  5  2  0  0  0  0
  7  1  1  0  0  0  0
  8  6  1  0  0  0  0
 10 11  1  0  0  0  0
 11 12  1  0  0  0  0
 12 14  2  0  0  0  0
 12 13  1  0  0  0  0
 13 15  2  0  0  0  0
 14 17  1  0  0  0  0
 15 19  1  0  0  0  0
 15 20  1  0  0  0  0
 16 13  1  0  0  0  0
 17 21  1  0  0  0  0
 17 19  2  0  0  0  0
 18 14  1  0  0  0  0
 19 26  1  0  0  0  0
 22 23  2  0  0  0  0
 24 22  1  0  0  0  0
 24 25  1  0  0  0  0
 26 28  1  0  0  0  0
 26 27  2  0  0  0  0
 28 29  1  0  0  0  0
M  RAD  4   2   2   3   2  10   3  11   2
M  END
