Coordinates from ORCA-job 1g-Schema6-R11-K+-B3LYPG-6-31G_dp-scan-d49-09-n400
 OpenBabel08281819543D

 29 29  0  0  0  0  0  0  0  0999 V2000
   -0.7164    2.1821   -1.6079 C   0  0  0  0  0  0  0  0  0  0  0  0
    0.4458    1.6311   -1.1204 C   0  0  0  0  0  0  0  0  0  0  0  0
    0.7682    1.1484   -0.0081 C   0  0  0  0  0  0  0  0  0  0  0  0
   -0.1394    1.0958    1.0495 C   0  0  0  0  0  0  0  0  0  0  0  0
   -1.4043    1.6326    0.7080 C   0  0  0  0  0  0  0  0  0  0  0  0
   -1.6793    2.1560   -0.5744 C   0  0  0  0  0  0  0  0  0  0  0  0
   -0.9136    2.5806   -2.5946 H   0  0  0  0  0  0  0  0  0  0  0  0
   -2.6678    2.5548   -0.7769 H   0  0  0  0  0  0  0  0  0  0  0  0
    0.0336    0.7029    2.0445 H   0  0  0  0  0  0  0  0  0  0  0  0
    3.9449   -2.9080   -0.5235 N   0  0  0  0  0  0  0  0  0  0  0  0
    4.3798   -1.9652   -0.1158 N   0  0  0  0  0  0  0  0  0  0  0  0
    4.9149   -0.8005    0.3875 C   0  0  0  0  0  0  0  0  0  0  0  0
    6.2634   -0.8230    0.8072 C   0  0  0  0  0  0  0  0  0  0  0  0
    4.0817    0.3349    0.4509 C   0  0  0  0  0  0  0  0  0  0  0  0
    6.7827    0.3563    1.3109 C   0  0  0  0  0  0  0  0  0  0  0  0
    6.8568   -1.7276    0.7344 H   0  0  0  0  0  0  0  0  0  0  0  0
    4.6426    1.4964    0.9629 C   0  0  0  0  0  0  0  0  0  0  0  0
    3.0443    0.3121    0.1194 H   0  0  0  0  0  0  0  0  0  0  0  0
    5.9805    1.5087    1.3889 C   0  0  0  0  0  0  0  0  0  0  0  0
    7.8100    0.4135    1.6531 H   0  0  0  0  0  0  0  0  0  0  0  0
    4.0409    2.3951    1.0335 H   0  0  0  0  0  0  0  0  0  0  0  0
   -2.4423    1.6161    1.7853 C   0  0  0  0  0  0  0  0  0  0  0  0
   -2.2537    1.1773    2.9005 O   0  0  0  0  0  0  0  0  0  0  0  0
   -3.6210    2.1400    1.3874 O   0  0  0  0  0  0  0  0  0  0  0  0
   -4.2233    2.0829    2.1486 H   0  0  0  0  0  0  0  0  0  0  0  0
    6.6274    2.7495    1.9505 C   0  0  0  0  0  0  0  0  0  0  0  0
    7.7779    2.7704    2.3211 O   0  0  0  0  0  0  0  0  0  0  0  0
    5.7821    3.7887    1.9813 O   0  0  0  0  0  0  0  0  0  0  0  0
    6.2561    4.5533    2.3531 H   0  0  0  0  0  0  0  0  0  0  0  0
  1  2  2  0  0  0  0
  1  6  1  0  0  0  0
  2  3  1  0  0  0  0
  3  4  2  0  0  0  0
  4  9  1  0  0  0  0
  5  4  1  0  0  0  0
  5 22  1  0  0  0  0
  6  5  2  0  0  0  0
  7  1  1  0  0  0  0
  8  6  1  0  0  0  0
 10 11  1  0  0  0  0
 11 12  1  0  0  0  0
 12 14  2  0  0  0  0
 12 13  1  0  0  0  0
 13 15  2  0  0  0  0
 14 17  1  0  0  0  0
 15 19  1  0  0  0  0
 15 20  1  0  0  0  0
 16 13  1  0  0  0  0
 17 21  1  0  0  0  0
 17 19  2  0  0  0  0
 18 14  1  0  0  0  0
 19 26  1  0  0  0  0
 22 23  2  0  0  0  0
 24 22  1  0  0  0  0
 24 25  1  0  0  0  0
 26 28  1  0  0  0  0
 26 27  2  0  0  0  0
 28 29  1  0  0  0  0
M  RAD  4   2   2   3   2  10   3  11   2
M  END
