Coordinates from ORCA-job 1g-Schema6-R11-K+-B3LYPG-6-31G_dp-scan-d49-09-n400
 OpenBabel08281819543D

 29 29  0  0  0  0  0  0  0  0999 V2000
   -0.8114    2.0595   -1.6814 C   0  0  0  0  0  0  0  0  0  0  0  0
    0.3779    1.6018   -1.1683 C   0  0  0  0  0  0  0  0  0  0  0  0
    0.7371    1.1712   -0.0450 C   0  0  0  0  0  0  0  0  0  0  0  0
   -0.1793    1.0893    1.0061 C   0  0  0  0  0  0  0  0  0  0  0  0
   -1.4756    1.5280    0.6452 C   0  0  0  0  0  0  0  0  0  0  0  0
   -1.7777    1.9959   -0.6522 C   0  0  0  0  0  0  0  0  0  0  0  0
   -1.0266    2.4170   -2.6799 H   0  0  0  0  0  0  0  0  0  0  0  0
   -2.7892    2.3217   -0.8712 H   0  0  0  0  0  0  0  0  0  0  0  0
    0.0129    0.7382    2.0133 H   0  0  0  0  0  0  0  0  0  0  0  0
    3.4835   -2.5606   -0.4072 N   0  0  0  0  0  0  0  0  0  0  0  0
    4.0551   -1.6859   -0.0175 N   0  0  0  0  0  0  0  0  0  0  0  0
    4.7576   -0.6038    0.4642 C   0  0  0  0  0  0  0  0  0  0  0  0
    6.1171   -0.7924    0.7954 C   0  0  0  0  0  0  0  0  0  0  0  0
    4.0684    0.6182    0.5950 C   0  0  0  0  0  0  0  0  0  0  0  0
    6.8017    0.3079    1.2800 C   0  0  0  0  0  0  0  0  0  0  0  0
    6.5947   -1.7584    0.6728 H   0  0  0  0  0  0  0  0  0  0  0  0
    4.7930    1.6960    1.0846 C   0  0  0  0  0  0  0  0  0  0  0  0
    3.0157    0.7082    0.3244 H   0  0  0  0  0  0  0  0  0  0  0  0
    6.1467    1.5438    1.4246 C   0  0  0  0  0  0  0  0  0  0  0  0
    7.8481    0.2380    1.5565 H   0  0  0  0  0  0  0  0  0  0  0  0
    4.3097    2.6586    1.2058 H   0  0  0  0  0  0  0  0  0  0  0  0
   -2.5170    1.4699    1.7180 C   0  0  0  0  0  0  0  0  0  0  0  0
   -2.3061    1.0741    2.8451 O   0  0  0  0  0  0  0  0  0  0  0  0
   -3.7256    1.9020    1.3006 O   0  0  0  0  0  0  0  0  0  0  0  0
   -4.3278    1.8254    2.0601 H   0  0  0  0  0  0  0  0  0  0  0  0
    6.9679    2.6890    1.9607 C   0  0  0  0  0  0  0  0  0  0  0  0
    8.1337    2.5697    2.2570 O   0  0  0  0  0  0  0  0  0  0  0  0
    6.2529    3.8181    2.0601 O   0  0  0  0  0  0  0  0  0  0  0  0
    6.8351    4.5151    2.4103 H   0  0  0  0  0  0  0  0  0  0  0  0
  1  2  2  0  0  0  0
  1  6  1  0  0  0  0
  2  3  1  0  0  0  0
  3  4  2  0  0  0  0
  4  9  1  0  0  0  0
  5  4  1  0  0  0  0
  5 22  1  0  0  0  0
  6  5  2  0  0  0  0
  7  1  1  0  0  0  0
  8  6  1  0  0  0  0
 10 11  1  0  0  0  0
 11 12  1  0  0  0  0
 12 14  2  0  0  0  0
 12 13  1  0  0  0  0
 13 15  2  0  0  0  0
 14 17  1  0  0  0  0
 15 19  1  0  0  0  0
 15 20  1  0  0  0  0
 16 13  1  0  0  0  0
 17 21  1  0  0  0  0
 17 19  2  0  0  0  0
 18 14  1  0  0  0  0
 19 26  1  0  0  0  0
 22 23  2  0  0  0  0
 24 22  1  0  0  0  0
 24 25  1  0  0  0  0
 26 28  1  0  0  0  0
 26 27  2  0  0  0  0
 28 29  1  0  0  0  0
M  RAD  4   2   2   3   2  10   3  11   2
M  END
