Coordinates from ORCA-job 1g-Schema6-R11-K+-B3LYPG-6-31G_dp-scan-d49-09-n400
 OpenBabel08281819543D

 29 29  0  0  0  0  0  0  0  0999 V2000
   -0.8060    2.0545   -1.6807 C   0  0  0  0  0  0  0  0  0  0  0  0
    0.3817    1.5882   -1.1710 C   0  0  0  0  0  0  0  0  0  0  0  0
    0.7408    1.1584   -0.0475 C   0  0  0  0  0  0  0  0  0  0  0  0
   -0.1716    1.0873    1.0076 C   0  0  0  0  0  0  0  0  0  0  0  0
   -1.4656    1.5359    0.6502 C   0  0  0  0  0  0  0  0  0  0  0  0
   -1.7687    2.0024   -0.6475 C   0  0  0  0  0  0  0  0  0  0  0  0
   -1.0221    2.4106   -2.6794 H   0  0  0  0  0  0  0  0  0  0  0  0
   -2.7783    2.3359   -0.8636 H   0  0  0  0  0  0  0  0  0  0  0  0
    0.0215    0.7376    2.0151 H   0  0  0  0  0  0  0  0  0  0  0  0
    3.5186   -2.5851   -0.4305 N   0  0  0  0  0  0  0  0  0  0  0  0
    4.0794   -1.7057   -0.0356 N   0  0  0  0  0  0  0  0  0  0  0  0
    4.7685   -0.6177    0.4524 C   0  0  0  0  0  0  0  0  0  0  0  0
    6.1277   -0.7935    0.7917 C   0  0  0  0  0  0  0  0  0  0  0  0
    4.0663    0.5976    0.5811 C   0  0  0  0  0  0  0  0  0  0  0  0
    6.7979    0.3129    1.2825 C   0  0  0  0  0  0  0  0  0  0  0  0
    6.6159   -1.7543    0.6707 H   0  0  0  0  0  0  0  0  0  0  0  0
    4.7768    1.6817    1.0772 C   0  0  0  0  0  0  0  0  0  0  0  0
    3.0141    0.6774    0.3041 H   0  0  0  0  0  0  0  0  0  0  0  0
    6.1298    1.5420    1.4252 C   0  0  0  0  0  0  0  0  0  0  0  0
    7.8432    0.2532    1.5653 H   0  0  0  0  0  0  0  0  0  0  0  0
    4.2831    2.6392    1.1969 H   0  0  0  0  0  0  0  0  0  0  0  0
   -2.5032    1.4903    1.7272 C   0  0  0  0  0  0  0  0  0  0  0  0
   -2.2911    1.0972    2.8551 O   0  0  0  0  0  0  0  0  0  0  0  0
   -3.7096    1.9317    1.3132 O   0  0  0  0  0  0  0  0  0  0  0  0
   -4.3093    1.8631    2.0755 H   0  0  0  0  0  0  0  0  0  0  0  0
    6.9366    2.6942    1.9682 C   0  0  0  0  0  0  0  0  0  0  0  0
    8.1019    2.5857    2.2707 O   0  0  0  0  0  0  0  0  0  0  0  0
    6.2104    3.8163    2.0644 O   0  0  0  0  0  0  0  0  0  0  0  0
    6.7839    4.5185    2.4186 H   0  0  0  0  0  0  0  0  0  0  0  0
  1  2  2  0  0  0  0
  1  6  1  0  0  0  0
  2  3  1  0  0  0  0
  3  4  2  0  0  0  0
  4  9  1  0  0  0  0
  5  4  1  0  0  0  0
  5 22  1  0  0  0  0
  6  5  2  0  0  0  0
  7  1  1  0  0  0  0
  8  6  1  0  0  0  0
 10 11  1  0  0  0  0
 11 12  1  0  0  0  0
 12 14  2  0  0  0  0
 12 13  1  0  0  0  0
 13 15  2  0  0  0  0
 14 17  1  0  0  0  0
 15 19  1  0  0  0  0
 15 20  1  0  0  0  0
 16 13  1  0  0  0  0
 17 21  1  0  0  0  0
 17 19  2  0  0  0  0
 18 14  1  0  0  0  0
 19 26  1  0  0  0  0
 22 23  2  0  0  0  0
 24 22  1  0  0  0  0
 24 25  1  0  0  0  0
 26 28  1  0  0  0  0
 26 27  2  0  0  0  0
 28 29  1  0  0  0  0
M  RAD  4   2   2   3   2  10   3  11   2
M  END
