Coordinates from ORCA-job 1g-Schema6-R11-K+-B3LYPG-6-31G_dp-scan-d49-09-n400
 OpenBabel08281819543D

 29 32  0  0  1  0  0  0  0  0999 V2000
    0.9513    2.3426    0.3566 C   0  0  0  0  0  0  0  0  0  0  0  0
    1.8436    1.2913    0.2323 C   0  0  0  0  0  0  0  0  0  0  0  0
    1.3919   -0.0804    0.2894 C   0  0  1  0  0  0  0  0  0  0  0  0
    0.0375   -0.3656    0.6785 C   0  0  0  0  0  0  0  0  0  0  0  0
   -0.8268    0.6909    0.8333 C   0  0  0  0  0  0  0  0  0  0  0  0
   -0.3795    2.0333    0.6480 C   0  0  0  0  0  0  0  0  0  0  0  0
    1.2667    3.3779    0.2834 H   0  0  0  0  0  0  0  0  0  0  0  0
   -1.1001    2.8341    0.7748 H   0  0  0  0  0  0  0  0  0  0  0  0
   -0.3120   -1.3887    0.7743 H   0  0  0  0  0  0  0  0  0  0  0  0
    2.0683   -0.8713   -0.8338 N   0  0  0  0  0  0  0  0  0  0  0  0
    2.5667   -0.9199    0.4368 N   0  0  0  0  0  0  0  0  0  0  0  0
    3.7101   -0.0915    0.6868 C   0  0  0  0  0  0  0  0  0  0  0  0
    4.9223   -0.4096    1.2203 C   0  0  0  0  0  0  0  0  0  0  0  0
    3.3596    1.2510    0.1744 C   0  0  2  0  0  0  0  0  0  0  0  0
    5.8623    0.6413    1.3057 C   0  0  0  0  0  0  0  0  0  0  0  0
    5.1616   -1.4162    1.5455 H   0  0  0  0  0  0  0  0  0  0  0  0
    4.2904    2.3217    0.4936 C   0  0  0  0  0  0  0  0  0  0  0  0
    3.4845    0.9828   -0.9325 H   0  0  0  0  0  0  0  0  0  0  0  0
    5.5425    1.9795    0.9729 C   0  0  0  0  0  0  0  0  0  0  0  0
    6.8743    0.4443    1.6469 H   0  0  0  0  0  0  0  0  0  0  0  0
    4.0267    3.3620    0.3351 H   0  0  0  0  0  0  0  0  0  0  0  0
   -2.2528    0.3706    1.1879 C   0  0  0  0  0  0  0  0  0  0  0  0
   -2.6536   -0.7571    1.3547 O   0  0  0  0  0  0  0  0  0  0  0  0
   -3.0047    1.4789    1.2992 O   0  0  0  0  0  0  0  0  0  0  0  0
   -3.9080    1.2018    1.5324 H   0  0  0  0  0  0  0  0  0  0  0  0
    6.6140    3.0092    1.2145 C   0  0  0  0  0  0  0  0  0  0  0  0
    7.7162    2.7277    1.6216 O   0  0  0  0  0  0  0  0  0  0  0  0
    6.1927    4.2505    0.9229 O   0  0  0  0  0  0  0  0  0  0  0  0
    6.9269    4.8640    1.1016 H   0  0  0  0  0  0  0  0  0  0  0  0
  1  6  1  0  0  0  0
  2  3  1  0  0  0  0
  2  1  2  0  0  0  0
  3 10  1  6  0  0  0
  3 11  1  0  0  0  0
  3  4  1  0  0  0  0
  4  9  1  0  0  0  0
  4  5  2  0  0  0  0
  5 22  1  0  0  0  0
  6  8  1  0  0  0  0
  6  5  1  0  0  0  0
  7  1  1  0  0  0  0
 10 11  1  0  0  0  0
 11 12  1  0  0  0  0
 12 13  2  0  0  0  0
 13 15  1  0  0  0  0
 13 16  1  0  0  0  0
 14 18  1  6  0  0  0
 14  2  1  0  0  0  0
 14 17  1  0  0  0  0
 14 12  1  0  0  0  0
 15 20  1  0  0  0  0
 17 19  2  0  0  0  0
 19 26  1  0  0  0  0
 19 15  1  0  0  0  0
 21 17  1  0  0  0  0
 22 24  1  0  0  0  0
 22 23  2  0  0  0  0
 24 25  1  0  0  0  0
 26 27  2  0  0  0  0
 28 29  1  0  0  0  0
 28 26  1  0  0  0  0
M  RAD  3   6   2  10   2  15   2
M  END
