Coordinates from ORCA-job 1g-Schema6-R11-K+-B3LYPG-6-31G_dp-scan-d49-09-n400
 OpenBabel08281819543D

 29 32  0  0  1  0  0  0  0  0999 V2000
    1.1866    2.1775    0.2911 C   0  0  0  0  0  0  0  0  0  0  0  0
    1.9377    1.0672   -0.0297 C   0  0  0  0  0  0  0  0  0  0  0  0
    1.3357   -0.2509    0.0388 C   0  0  1  0  0  0  0  0  0  0  0  0
   -0.0061   -0.3530    0.4749 C   0  0  0  0  0  0  0  0  0  0  0  0
   -0.7164    0.7730    0.8834 C   0  0  0  0  0  0  0  0  0  0  0  0
   -0.1316    2.0386    0.7628 C   0  0  0  0  0  0  0  0  0  0  0  0
    1.6304    3.1660    0.2435 H   0  0  0  0  0  0  0  0  0  0  0  0
   -0.6940    2.9178    1.0566 H   0  0  0  0  0  0  0  0  0  0  0  0
   -0.5020   -1.3193    0.4736 H   0  0  0  0  0  0  0  0  0  0  0  0
    1.9004   -1.3367   -0.6115 N   0  0  0  0  0  0  0  0  0  0  0  0
    2.8561   -1.0556    0.1169 N   0  0  1  0  0  0  0  0  0  0  0  0
    3.8738   -0.2799    0.2939 C   0  0  2  0  0  0  0  0  0  0  0  0
    4.9739   -0.4322    1.1917 C   0  0  0  0  0  0  0  0  0  0  0  0
    3.4524    1.0546   -0.3195 C   0  0  2  0  0  0  0  0  0  0  0  0
    5.6859    0.6808    1.5072 C   0  0  0  0  0  0  0  0  0  0  0  0
    5.2158   -1.4122    1.5856 H   0  0  0  0  0  0  0  0  0  0  0  0
    4.2914    2.1972    0.1718 C   0  0  0  0  0  0  0  0  0  0  0  0
    3.5662    1.0099   -1.4201 H   0  0  0  0  0  0  0  0  0  0  0  0
    5.3350    2.0040    1.0052 C   0  0  0  0  0  0  0  0  0  0  0  0
    6.5526    0.6214    2.1576 H   0  0  0  0  0  0  0  0  0  0  0  0
    4.0759    3.1848   -0.2230 H   0  0  0  0  0  0  0  0  0  0  0  0
   -2.1192    0.5657    1.3776 C   0  0  0  0  0  0  0  0  0  0  0  0
   -2.6353   -0.5254    1.4553 O   0  0  0  0  0  0  0  0  0  0  0  0
   -2.7121    1.7221    1.7175 O   0  0  0  0  0  0  0  0  0  0  0  0
   -3.6109    1.5144    2.0273 H   0  0  0  0  0  0  0  0  0  0  0  0
    6.2113    3.1342    1.4616 C   0  0  0  0  0  0  0  0  0  0  0  0
    7.1541    2.9746    2.2029 O   0  0  0  0  0  0  0  0  0  0  0  0
    5.8251    4.3214    0.9628 O   0  0  0  0  0  0  0  0  0  0  0  0
    6.4398    4.9952    1.3014 H   0  0  0  0  0  0  0  0  0  0  0  0
  1  6  1  0  0  0  0
  2  3  1  0  0  0  0
  2  1  2  0  0  0  0
  3 10  1  6  0  0  0
  3 11  1  0  0  0  0
  3  4  1  0  0  0  0
  4  5  2  0  0  0  0
  5 22  1  0  0  0  0
  6  5  1  0  0  0  0
  6  8  1  0  0  0  0
  7  1  1  0  0  0  0
  9  4  1  0  0  0  0
 11 10  1  6  0  0  0
 11 12  1  0  0  0  0
 12 13  1  1  0  0  0
 13 15  2  0  0  0  0
 13 16  1  0  0  0  0
 14 18  1  6  0  0  0
 14  2  1  0  0  0  0
 14 17  1  0  0  0  0
 14 12  1  0  0  0  0
 15 20  1  0  0  0  0
 17 19  2  0  0  0  0
 19 26  1  0  0  0  0
 19 15  1  0  0  0  0
 21 17  1  0  0  0  0
 22 23  2  0  0  0  0
 22 24  1  0  0  0  0
 24 25  1  0  0  0  0
 26 27  2  0  0  0  0
 28 29  1  0  0  0  0
 28 26  1  0  0  0  0
M  RAD  3   6   2  10   2  12   2
M  END
