Coordinates from ORCA-job 1g-Schema6-R11-K+-B3LYPG-6-31G_dp-scan-d49-09-n400
 OpenBabel08281819543D

 29 31  0  0  1  0  0  0  0  0999 V2000
    1.2484    2.1427    0.4300 C   0  0  0  0  0  0  0  0  0  0  0  0
    1.9754    1.0354    0.0457 C   0  0  0  0  0  0  0  0  0  0  0  0
    1.3603   -0.2628    0.0419 C   0  0  0  0  0  0  0  0  0  0  0  0
    0.0033   -0.3438    0.4258 C   0  0  0  0  0  0  0  0  0  0  0  0
   -0.6983    0.7685    0.8957 C   0  0  0  0  0  0  0  0  0  0  0  0
   -0.0783    2.0168    0.8847 C   0  0  0  0  0  0  0  0  0  0  0  0
    1.7169    3.1212    0.4206 H   0  0  0  0  0  0  0  0  0  0  0  0
   -0.6152    2.8914    1.2345 H   0  0  0  0  0  0  0  0  0  0  0  0
   -0.5104   -1.2989    0.3607 H   0  0  0  0  0  0  0  0  0  0  0  0
    1.8785   -1.3721   -0.5285 N   0  0  0  0  0  0  0  0  0  0  0  0
    2.9701   -1.1324   -0.0556 N   0  0  0  0  0  0  0  0  0  0  0  0
    3.8715   -0.2627    0.2194 C   0  0  0  0  0  0  0  0  0  0  0  0
    4.8884   -0.3949    1.2117 C   0  0  0  0  0  0  0  0  0  0  0  0
    3.4600    1.0677   -0.3766 C   0  0  2  0  0  0  0  0  0  0  0  0
    5.5722    0.7267    1.5753 C   0  0  0  0  0  0  0  0  0  0  0  0
    5.0786   -1.3637    1.6581 H   0  0  0  0  0  0  0  0  0  0  0  0
    4.3268    2.2018    0.0703 C   0  0  0  0  0  0  0  0  0  0  0  0
    3.4770    1.0543   -1.4800 H   0  0  0  0  0  0  0  0  0  0  0  0
    5.3013    2.0287    0.9929 C   0  0  0  0  0  0  0  0  0  0  0  0
    6.3641    0.6775    2.3165 H   0  0  0  0  0  0  0  0  0  0  0  0
    4.2047    3.1582   -0.4276 H   0  0  0  0  0  0  0  0  0  0  0  0
   -2.1135    0.5584    1.3469 C   0  0  0  0  0  0  0  0  0  0  0  0
   -2.6578   -0.5220    1.3319 O   0  0  0  0  0  0  0  0  0  0  0  0
   -2.6876    1.6997    1.7638 O   0  0  0  0  0  0  0  0  0  0  0  0
   -3.5964    1.4888    2.0398 H   0  0  0  0  0  0  0  0  0  0  0  0
    6.1859    3.1544    1.4492 C   0  0  0  0  0  0  0  0  0  0  0  0
    7.0560    3.0072    2.2763 O   0  0  0  0  0  0  0  0  0  0  0  0
    5.8897    4.3171    0.8454 O   0  0  0  0  0  0  0  0  0  0  0  0
    6.5008    4.9924    1.1881 H   0  0  0  0  0  0  0  0  0  0  0  0
  1  6  2  0  0  0  0
  2  1  1  0  0  0  0
  3  2  2  0  0  0  0
  3  4  1  0  0  0  0
  4  5  2  0  0  0  0
  5 22  1  0  0  0  0
  6  5  1  0  0  0  0
  6  8  1  0  0  0  0
  7  1  1  0  0  0  0
  9  4  1  0  0  0  0
 10 11  1  0  0  0  0
 10  3  1  0  0  0  0
 11 12  1  0  0  0  0
 12 13  2  0  0  0  0
 13 15  1  0  0  0  0
 13 16  1  0  0  0  0
 14 18  1  6  0  0  0
 14  2  1  0  0  0  0
 14 17  1  0  0  0  0
 14 12  1  0  0  0  0
 15 20  1  0  0  0  0
 17 19  2  0  0  0  0
 19 26  1  0  0  0  0
 19 15  1  0  0  0  0
 21 17  1  0  0  0  0
 22 24  1  0  0  0  0
 23 22  2  0  0  0  0
 24 25  1  0  0  0  0
 26 27  2  0  0  0  0
 28 29  1  0  0  0  0
 28 26  1  0  0  0  0
M  RAD  3  10   2  11   2  15   2
M  END
