Coordinates from ORCA-job 1g-Schema6-R11-K+-B3LYPG-6-31G_dp-scan-d49-09-n400
 OpenBabel08281819543D

 29 29  0  0  0  0  0  0  0  0999 V2000
   -1.1118    1.2824   -1.9656 C   0  0  0  0  0  0  0  0  0  0  0  0
    0.0346    0.6096   -1.6509 C   0  0  0  0  0  0  0  0  0  0  0  0
    0.6087    0.2188   -0.5965 C   0  0  0  0  0  0  0  0  0  0  0  0
   -0.0250    0.4802    0.6259 C   0  0  0  0  0  0  0  0  0  0  0  0
   -1.2460    1.1834    0.5065 C   0  0  0  0  0  0  0  0  0  0  0  0
   -1.7717    1.5663   -0.7449 C   0  0  0  0  0  0  0  0  0  0  0  0
   -1.4954    1.5660   -2.9366 H   0  0  0  0  0  0  0  0  0  0  0  0
   -2.7180    2.0959   -0.7832 H   0  0  0  0  0  0  0  0  0  0  0  0
    0.3342    0.1895    1.6076 H   0  0  0  0  0  0  0  0  0  0  0  0
    2.4411   -1.3406   -0.5418 N   0  0  0  0  0  0  0  0  0  0  0  0
    3.3348   -0.8305   -0.0871 N   0  0  0  0  0  0  0  0  0  0  0  0
    4.2858    0.0005    0.4705 C   0  0  0  0  0  0  0  0  0  0  0  0
    5.5479   -0.5379    0.7831 C   0  0  0  0  0  0  0  0  0  0  0  0
    3.9312    1.3459    0.6928 C   0  0  0  0  0  0  0  0  0  0  0  0
    6.4844    0.3174    1.3420 C   0  0  0  0  0  0  0  0  0  0  0  0
    5.7683   -1.5816    0.5896 H   0  0  0  0  0  0  0  0  0  0  0  0
    4.8925    2.1743    1.2539 C   0  0  0  0  0  0  0  0  0  0  0  0
    2.9417    1.7037    0.4311 H   0  0  0  0  0  0  0  0  0  0  0  0
    6.1608    1.6633    1.5767 C   0  0  0  0  0  0  0  0  0  0  0  0
    7.4756   -0.0331    1.6069 H   0  0  0  0  0  0  0  0  0  0  0  0
    4.6671    3.2164    1.4461 H   0  0  0  0  0  0  0  0  0  0  0  0
   -1.9537    1.5029    1.7878 C   0  0  0  0  0  0  0  0  0  0  0  0
   -1.5096    1.2324    2.8831 O   0  0  0  0  0  0  0  0  0  0  0  0
   -3.1314    2.1269    1.5919 O   0  0  0  0  0  0  0  0  0  0  0  0
   -3.5167    2.2924    2.4694 H   0  0  0  0  0  0  0  0  0  0  0  0
    7.2334    2.5268    2.1874 C   0  0  0  0  0  0  0  0  0  0  0  0
    8.3307    2.1047    2.4696 O   0  0  0  0  0  0  0  0  0  0  0  0
    6.8215    3.7903    2.3730 O   0  0  0  0  0  0  0  0  0  0  0  0
    7.5575    4.2892    2.7688 H   0  0  0  0  0  0  0  0  0  0  0  0
  1  2  2  0  0  0  0
  1  6  1  0  0  0  0
  2  3  1  0  0  0  0
  3  4  2  0  0  0  0
  4  9  1  0  0  0  0
  5  4  1  0  0  0  0
  5 22  1  0  0  0  0
  6  5  2  0  0  0  0
  7  1  1  0  0  0  0
  8  6  1  0  0  0  0
 10 11  1  0  0  0  0
 11 12  1  0  0  0  0
 12 14  2  0  0  0  0
 12 13  1  0  0  0  0
 13 15  2  0  0  0  0
 14 17  1  0  0  0  0
 15 19  1  0  0  0  0
 15 20  1  0  0  0  0
 16 13  1  0  0  0  0
 17 21  1  0  0  0  0
 17 19  2  0  0  0  0
 18 14  1  0  0  0  0
 19 26  1  0  0  0  0
 22 23  2  0  0  0  0
 24 22  1  0  0  0  0
 24 25  1  0  0  0  0
 26 28  1  0  0  0  0
 26 27  2  0  0  0  0
 28 29  1  0  0  0  0
M  RAD  4   2   2   3   2  10   3  11   2
M  END
