Coordinates from ORCA-job 1g-Schema6-R11-K+-B3LYPG-6-31G_dp-scan-d49-09-n400
 OpenBabel08281819543D

 29 31  0  0  1  0  0  0  0  0999 V2000
    1.2252    2.1582    0.3645 C   0  0  0  0  0  0  0  0  0  0  0  0
    1.9612    1.0518   -0.0001 C   0  0  0  0  0  0  0  0  0  0  0  0
    1.3549   -0.2579    0.0282 C   0  0  0  0  0  0  0  0  0  0  0  0
    0.0053   -0.3465    0.4396 C   0  0  0  0  0  0  0  0  0  0  0  0
   -0.6987    0.7695    0.8937 C   0  0  0  0  0  0  0  0  0  0  0  0
   -0.0954    2.0260    0.8359 C   0  0  0  0  0  0  0  0  0  0  0  0
    1.6840    3.1409    0.3396 H   0  0  0  0  0  0  0  0  0  0  0  0
   -0.6400    2.9024    1.1688 H   0  0  0  0  0  0  0  0  0  0  0  0
   -0.5025   -1.3061    0.3984 H   0  0  0  0  0  0  0  0  0  0  0  0
    1.8792   -1.3616   -0.5747 N   0  0  0  0  0  0  0  0  0  0  0  0
    2.9197   -1.0890   -0.0039 N   0  0  0  0  0  0  0  0  0  0  0  0
    3.8715   -0.2688    0.2380 C   0  0  0  0  0  0  0  0  0  0  0  0
    4.9088   -0.4077    1.2140 C   0  0  0  0  0  0  0  0  0  0  0  0
    3.4592    1.0659   -0.3699 C   0  0  2  0  0  0  0  0  0  0  0  0
    5.5983    0.7093    1.5664 C   0  0  0  0  0  0  0  0  0  0  0  0
    5.1091   -1.3801    1.6477 H   0  0  0  0  0  0  0  0  0  0  0  0
    4.3195    2.2003    0.0982 C   0  0  0  0  0  0  0  0  0  0  0  0
    3.5168    1.0440   -1.4727 H   0  0  0  0  0  0  0  0  0  0  0  0
    5.3072    2.0191    1.0017 C   0  0  0  0  0  0  0  0  0  0  0  0
    6.4091    0.6575    2.2863 H   0  0  0  0  0  0  0  0  0  0  0  0
    4.1761    3.1665   -0.3747 H   0  0  0  0  0  0  0  0  0  0  0  0
   -2.1050    0.5560    1.3718 C   0  0  0  0  0  0  0  0  0  0  0  0
   -2.6359   -0.5308    1.3949 O   0  0  0  0  0  0  0  0  0  0  0  0
   -2.6861    1.7019    1.7651 O   0  0  0  0  0  0  0  0  0  0  0  0
   -3.5885    1.4893    2.0603 H   0  0  0  0  0  0  0  0  0  0  0  0
    6.1886    3.1452    1.4607 C   0  0  0  0  0  0  0  0  0  0  0  0
    7.0765    2.9938    2.2683 O   0  0  0  0  0  0  0  0  0  0  0  0
    5.8710    4.3164    0.8835 O   0  0  0  0  0  0  0  0  0  0  0  0
    6.4832    4.9898    1.2278 H   0  0  0  0  0  0  0  0  0  0  0  0
  1  6  2  0  0  0  0
  2  3  2  0  0  0  0
  2  1  1  0  0  0  0
  3  4  1  0  0  0  0
  4  5  2  0  0  0  0
  5 22  1  0  0  0  0
  6  5  1  0  0  0  0
  6  8  1  0  0  0  0
  7  1  1  0  0  0  0
  9  4  1  0  0  0  0
 10 11  1  0  0  0  0
 10  3  1  0  0  0  0
 11 12  2  0  0  0  0
 12 13  1  0  0  0  0
 13 15  2  0  0  0  0
 13 16  1  0  0  0  0
 14 18  1  6  0  0  0
 14  2  1  0  0  0  0
 14 17  1  0  0  0  0
 14 12  1  0  0  0  0
 15 20  1  0  0  0  0
 17 19  2  0  0  0  0
 19 26  1  0  0  0  0
 19 15  1  0  0  0  0
 21 17  1  0  0  0  0
 22 23  2  0  0  0  0
 22 24  1  0  0  0  0
 24 25  1  0  0  0  0
 26 27  2  0  0  0  0
 28 29  1  0  0  0  0
 28 26  1  0  0  0  0
M  RAD  1  10   2
M  END
