Coordinates from ORCA-job 1g-Schema6-R11-K+-B3LYPG-6-31G_dp-scan-d49-09-n400
 OpenBabel08281819543D

 29 32  0  0  1  0  0  0  0  0999 V2000
    0.9196    2.3634    0.3828 C   0  0  0  0  0  0  0  0  0  0  0  0
    1.8330    1.3269    0.2973 C   0  0  0  0  0  0  0  0  0  0  0  0
    1.4171   -0.0596    0.3732 C   0  0  1  0  0  0  0  0  0  0  0  0
    0.0515   -0.3605    0.7293 C   0  0  0  0  0  0  0  0  0  0  0  0
   -0.8386    0.6790    0.8308 C   0  0  0  0  0  0  0  0  0  0  0  0
   -0.4113    2.0289    0.6402 C   0  0  0  0  0  0  0  0  0  0  0  0
    1.2162    3.4035    0.3000 H   0  0  0  0  0  0  0  0  0  0  0  0
   -1.1525    2.8157    0.7331 H   0  0  0  0  0  0  0  0  0  0  0  0
   -0.2799   -1.3888    0.8352 H   0  0  0  0  0  0  0  0  0  0  0  0
    2.0639   -0.8131   -0.8136 N   0  0  0  0  0  0  0  0  0  0  0  0
    2.5236   -0.8613    0.4869 N   0  0  0  0  0  0  0  0  0  0  0  0
    3.6874   -0.0587    0.7412 C   0  0  0  0  0  0  0  0  0  0  0  0
    4.9189   -0.4075    1.2027 C   0  0  0  0  0  0  0  0  0  0  0  0
    3.3459    1.2939    0.2544 C   0  0  2  0  0  0  0  0  0  0  0  0
    5.8775    0.6310    1.2672 C   0  0  0  0  0  0  0  0  0  0  0  0
    5.1577   -1.4229    1.4993 H   0  0  0  0  0  0  0  0  0  0  0  0
    4.2994    2.3460    0.5413 C   0  0  0  0  0  0  0  0  0  0  0  0
    3.4518    1.0001   -0.8550 H   0  0  0  0  0  0  0  0  0  0  0  0
    5.5675    1.9759    0.9643 C   0  0  0  0  0  0  0  0  0  0  0  0
    6.8982    0.4142    1.5682 H   0  0  0  0  0  0  0  0  0  0  0  0
    4.0469    3.3924    0.4069 H   0  0  0  0  0  0  0  0  0  0  0  0
   -2.2691    0.3370    1.1438 C   0  0  0  0  0  0  0  0  0  0  0  0
   -2.6542   -0.7952    1.3165 O   0  0  0  0  0  0  0  0  0  0  0  0
   -3.0448    1.4325    1.2114 O   0  0  0  0  0  0  0  0  0  0  0  0
   -3.9500    1.1420    1.4197 H   0  0  0  0  0  0  0  0  0  0  0  0
    6.6645    2.9856    1.1730 C   0  0  0  0  0  0  0  0  0  0  0  0
    7.7770    2.6830    1.5342 O   0  0  0  0  0  0  0  0  0  0  0  0
    6.2524    4.2361    0.9085 O   0  0  0  0  0  0  0  0  0  0  0  0
    7.0027    4.8362    1.0639 H   0  0  0  0  0  0  0  0  0  0  0  0
  1  6  1  0  0  0  0
  2  3  1  0  0  0  0
  2  1  2  0  0  0  0
  3 10  1  6  0  0  0
  3 11  1  0  0  0  0
  3  4  1  0  0  0  0
  4  5  2  0  0  0  0
  4  9  1  0  0  0  0
  5 22  1  0  0  0  0
  6  8  1  0  0  0  0
  6  5  1  0  0  0  0
  7  1  1  0  0  0  0
 10 11  1  0  0  0  0
 11 12  1  0  0  0  0
 12 13  2  0  0  0  0
 13 15  1  0  0  0  0
 13 16  1  0  0  0  0
 14 18  1  6  0  0  0
 14  2  1  0  0  0  0
 14 17  1  0  0  0  0
 14 12  1  0  0  0  0
 15 20  1  0  0  0  0
 17 19  2  0  0  0  0
 19 26  1  0  0  0  0
 19 15  1  0  0  0  0
 21 17  1  0  0  0  0
 22 24  1  0  0  0  0
 22 23  2  0  0  0  0
 24 25  1  0  0  0  0
 26 27  2  0  0  0  0
 28 29  1  0  0  0  0
 28 26  1  0  0  0  0
M  RAD  3   6   2  10   2  15   2
M  END
