Coordinates from ORCA-job 1g-Schema6-R11-K+-B3LYPG-6-31G_dp-scan-d49-09-n400
 OpenBabel08281819543D

 29 29  0  0  0  0  0  0  0  0999 V2000
   -1.0078    1.4899   -1.8668 C   0  0  0  0  0  0  0  0  0  0  0  0
    0.1325    0.8923   -1.4009 C   0  0  0  0  0  0  0  0  0  0  0  0
    0.5329    0.4612   -0.2868 C   0  0  0  0  0  0  0  0  0  0  0  0
   -0.3189    0.5556    0.8204 C   0  0  0  0  0  0  0  0  0  0  0  0
   -1.5631    1.1600    0.5265 C   0  0  0  0  0  0  0  0  0  0  0  0
   -1.8946    1.6076   -0.7703 C   0  0  0  0  0  0  0  0  0  0  0  0
   -1.2432    1.8274   -2.8674 H   0  0  0  0  0  0  0  0  0  0  0  0
   -2.8661    2.0598   -0.9405 H   0  0  0  0  0  0  0  0  0  0  0  0
   -0.1080    0.2149    1.8278 H   0  0  0  0  0  0  0  0  0  0  0  0
    2.4714   -1.2859   -0.2391 N   0  0  0  0  0  0  0  0  0  0  0  0
    3.4030   -0.7826    0.1296 N   0  0  0  0  0  0  0  0  0  0  0  0
    4.4250    0.0233    0.5888 C   0  0  0  0  0  0  0  0  0  0  0  0
    5.6915   -0.5469    0.8152 C   0  0  0  0  0  0  0  0  0  0  0  0
    4.1222    1.3823    0.8031 C   0  0  0  0  0  0  0  0  0  0  0  0
    6.6902    0.2955    1.2774 C   0  0  0  0  0  0  0  0  0  0  0  0
    5.8685   -1.6007    0.6318 H   0  0  0  0  0  0  0  0  0  0  0  0
    5.1459    2.1956    1.2670 C   0  0  0  0  0  0  0  0  0  0  0  0
    3.1235    1.7578    0.6070 H   0  0  0  0  0  0  0  0  0  0  0  0
    6.4213    1.6554    1.5023 C   0  0  0  0  0  0  0  0  0  0  0  0
    7.6899   -0.0759    1.4735 H   0  0  0  0  0  0  0  0  0  0  0  0
    4.9642    3.2480    1.4502 H   0  0  0  0  0  0  0  0  0  0  0  0
   -2.5182    1.3006    1.6720 C   0  0  0  0  0  0  0  0  0  0  0  0
   -2.2647    0.9532    2.8055 O   0  0  0  0  0  0  0  0  0  0  0  0
   -3.6906    1.8580    1.3083 O   0  0  0  0  0  0  0  0  0  0  0  0
   -4.2424    1.9059    2.1077 H   0  0  0  0  0  0  0  0  0  0  0  0
    7.5623    2.5015    2.0050 C   0  0  0  0  0  0  0  0  0  0  0  0
    8.6663    2.0534    2.2094 O   0  0  0  0  0  0  0  0  0  0  0  0
    7.2010    3.7802    2.1881 O   0  0  0  0  0  0  0  0  0  0  0  0
    7.9785    4.2679    2.5123 H   0  0  0  0  0  0  0  0  0  0  0  0
  1  2  2  0  0  0  0
  1  6  1  0  0  0  0
  2  3  1  0  0  0  0
  3  4  2  0  0  0  0
  4  9  1  0  0  0  0
  5  4  1  0  0  0  0
  5 22  1  0  0  0  0
  6  5  2  0  0  0  0
  7  1  1  0  0  0  0
  8  6  1  0  0  0  0
 10 11  1  0  0  0  0
 11 12  1  0  0  0  0
 12 14  2  0  0  0  0
 12 13  1  0  0  0  0
 13 15  2  0  0  0  0
 14 17  1  0  0  0  0
 15 20  1  0  0  0  0
 15 19  1  0  0  0  0
 16 13  1  0  0  0  0
 17 21  1  0  0  0  0
 17 19  2  0  0  0  0
 18 14  1  0  0  0  0
 19 26  1  0  0  0  0
 22 23  2  0  0  0  0
 24 22  1  0  0  0  0
 24 25  1  0  0  0  0
 26 28  1  0  0  0  0
 26 27  2  0  0  0  0
 28 29  1  0  0  0  0
M  RAD  4   2   2   3   2  10   3  11   2
M  END
