Coordinates from ORCA-job 1g-Schema6-R11-K+-B3LYPG-6-31G_dp-scan-d49-09-n400
 OpenBabel08281819543D

 29 29  0  0  0  0  0  0  0  0999 V2000
   -0.7408    2.1491   -1.6251 C   0  0  0  0  0  0  0  0  0  0  0  0
    0.4262    1.6137   -1.1326 C   0  0  0  0  0  0  0  0  0  0  0  0
    0.7559    1.1436   -0.0168 C   0  0  0  0  0  0  0  0  0  0  0  0
   -0.1519    1.0919    1.0411 C   0  0  0  0  0  0  0  0  0  0  0  0
   -1.4222    1.6132    0.6959 C   0  0  0  0  0  0  0  0  0  0  0  0
   -1.7031    2.1226   -0.5908 C   0  0  0  0  0  0  0  0  0  0  0  0
   -0.9421    2.5372   -2.6150 H   0  0  0  0  0  0  0  0  0  0  0  0
   -2.6954    2.5101   -0.7964 H   0  0  0  0  0  0  0  0  0  0  0  0
    0.0254    0.7098    2.0395 H   0  0  0  0  0  0  0  0  0  0  0  0
    3.8628   -2.8454   -0.5122 N   0  0  0  0  0  0  0  0  0  0  0  0
    4.3230   -1.9146   -0.1051 N   0  0  0  0  0  0  0  0  0  0  0  0
    4.8892   -0.7643    0.3978 C   0  0  0  0  0  0  0  0  0  0  0  0
    6.2419   -0.8176    0.8006 C   0  0  0  0  0  0  0  0  0  0  0  0
    4.0807    0.3879    0.4774 C   0  0  0  0  0  0  0  0  0  0  0  0
    6.7920    0.3475    1.3042 C   0  0  0  0  0  0  0  0  0  0  0  0
    6.8152   -1.7342    0.7156 H   0  0  0  0  0  0  0  0  0  0  0  0
    4.6724    1.5344    0.9888 C   0  0  0  0  0  0  0  0  0  0  0  0
    3.0388    0.3863    0.1576 H   0  0  0  0  0  0  0  0  0  0  0  0
    6.0153    1.5161    1.3983 C   0  0  0  0  0  0  0  0  0  0  0  0
    7.8244    0.3815    1.6340 H   0  0  0  0  0  0  0  0  0  0  0  0
    4.0916    2.4457    1.0719 H   0  0  0  0  0  0  0  0  0  0  0  0
   -2.4593    1.5960    1.7740 C   0  0  0  0  0  0  0  0  0  0  0  0
   -2.2657    1.1694    2.8931 O   0  0  0  0  0  0  0  0  0  0  0  0
   -3.6430    2.1060    1.3726 O   0  0  0  0  0  0  0  0  0  0  0  0
   -4.2441    2.0503    2.1349 H   0  0  0  0  0  0  0  0  0  0  0  0
    6.6952    2.7397    1.9586 C   0  0  0  0  0  0  0  0  0  0  0  0
    7.8506    2.7345    2.3141 O   0  0  0  0  0  0  0  0  0  0  0  0
    5.8724    3.7961    2.0059 O   0  0  0  0  0  0  0  0  0  0  0  0
    6.3671    4.5487    2.3752 H   0  0  0  0  0  0  0  0  0  0  0  0
  1  2  2  0  0  0  0
  1  6  1  0  0  0  0
  2  3  1  0  0  0  0
  3  4  2  0  0  0  0
  4  9  1  0  0  0  0
  5  4  1  0  0  0  0
  5 22  1  0  0  0  0
  6  5  2  0  0  0  0
  7  1  1  0  0  0  0
  8  6  1  0  0  0  0
 10 11  1  0  0  0  0
 11 12  1  0  0  0  0
 12 14  2  0  0  0  0
 12 13  1  0  0  0  0
 13 15  2  0  0  0  0
 14 17  1  0  0  0  0
 15 19  1  0  0  0  0
 15 20  1  0  0  0  0
 16 13  1  0  0  0  0
 17 21  1  0  0  0  0
 17 19  2  0  0  0  0
 18 14  1  0  0  0  0
 19 26  1  0  0  0  0
 22 23  2  0  0  0  0
 24 22  1  0  0  0  0
 24 25  1  0  0  0  0
 26 28  1  0  0  0  0
 26 27  2  0  0  0  0
 28 29  1  0  0  0  0
M  RAD  4   2   2   3   2  10   3  11   2
M  END
