Coordinates from ORCA-job 1g-Schema6-R11-K+-B3LYPG-6-31G_dp-scan-d49-09-n400
 OpenBabel08281819543D

 29 31  0  0  0  0  0  0  0  0999 V2000
    0.9020    2.4734    0.5737 C   0  0  0  0  0  0  0  0  0  0  0  0
    1.8968    1.5083    0.6161 C   0  0  0  0  0  0  0  0  0  0  0  0
    1.5816   -0.0034    0.6805 C   0  0  0  0  0  0  0  0  0  0  0  0
    0.1261   -0.3120    0.9051 C   0  0  0  0  0  0  0  0  0  0  0  0
   -0.8067    0.6795    0.7984 C   0  0  0  0  0  0  0  0  0  0  0  0
   -0.4236    2.0511    0.6416 C   0  0  0  0  0  0  0  0  0  0  0  0
    1.1359    3.5333    0.5476 H   0  0  0  0  0  0  0  0  0  0  0  0
   -1.2169    2.7914    0.6176 H   0  0  0  0  0  0  0  0  0  0  0  0
   -0.1732   -1.3511    1.0109 H   0  0  0  0  0  0  0  0  0  0  0  0
    1.9371   -0.8682   -0.5828 N   0  0  0  0  0  0  0  0  0  0  0  0
    2.4285   -0.6077    0.8250 N   0  0  0  0  0  0  0  0  0  0  0  0
    3.6604    0.1196    0.9121 C   0  0  0  0  0  0  0  0  0  0  0  0
    4.9581   -0.3366    1.0452 C   0  0  0  0  0  0  0  0  0  0  0  0
    3.3128    1.4984    0.7925 C   0  0  0  0  0  0  0  0  0  0  0  0
    5.9442    0.6506    1.0854 C   0  0  0  0  0  0  0  0  0  0  0  0
    5.1934   -1.3912    1.1308 H   0  0  0  0  0  0  0  0  0  0  0  0
    4.3257    2.4744    0.8399 C   0  0  0  0  0  0  0  0  0  0  0  0
    2.4564   -0.1695   -1.1443 H   0  0  0  0  0  0  0  0  0  0  0  0
    5.6362    2.0305    0.9868 C   0  0  0  0  0  0  0  0  0  0  0  0
    6.9888    0.3821    1.2063 H   0  0  0  0  0  0  0  0  0  0  0  0
    4.1087    3.5345    0.7722 H   0  0  0  0  0  0  0  0  0  0  0  0
   -2.2549    0.2768    0.9024 C   0  0  0  0  0  0  0  0  0  0  0  0
   -2.6127   -0.8687    1.0375 O   0  0  0  0  0  0  0  0  0  0  0  0
   -3.0753    1.3384    0.8303 O   0  0  0  0  0  0  0  0  0  0  0  0
   -3.9897    1.0141    0.9092 H   0  0  0  0  0  0  0  0  0  0  0  0
    6.7939    2.9864    1.0569 C   0  0  0  0  0  0  0  0  0  0  0  0
    7.9418    2.6278    1.1834 O   0  0  0  0  0  0  0  0  0  0  0  0
    6.4002    4.2686    0.9615 O   0  0  0  0  0  0  0  0  0  0  0  0
    7.1968    4.8246    1.0153 H   0  0  0  0  0  0  0  0  0  0  0  0
  1  2  2  0  0  0  0
  1  6  1  0  0  0  0
  2  3  1  0  0  0  0
  2 14  1  0  0  0  0
  3 11  1  0  0  0  0
  3  4  2  0  0  0  0
  4  9  1  0  0  0  0
  5 22  1  0  0  0  0
  5  4  1  0  0  0  0
  6  5  2  0  0  0  0
  7  1  1  0  0  0  0
  8  6  1  0  0  0  0
 10 11  1  0  0  0  0
 11 12  1  0  0  0  0
 12 13  2  0  0  0  0
 13 15  1  0  0  0  0
 13 16  1  0  0  0  0
 14 17  2  0  0  0  0
 14 12  1  0  0  0  0
 15 20  1  0  0  0  0
 17 19  1  0  0  0  0
 18 10  1  0  0  0  0
 19 26  1  0  0  0  0
 19 15  2  0  0  0  0
 21 17  1  0  0  0  0
 22 23  2  0  0  0  0
 24 22  1  0  0  0  0
 24 25  1  0  0  0  0
 26 27  2  0  0  0  0
 28 29  1  0  0  0  0
 28 26  1  0  0  0  0
M  RAD  1  10   2
M  END
