Coordinates from ORCA-job 1g-Schema6-R11-K+-B3LYPG-6-31G_dp-scan-d49-09-n400
 OpenBabel08281819543D

 29 29  0  0  0  0  0  0  0  0999 V2000
   -0.8678    1.6639   -1.6853 C   0  0  0  0  0  0  0  0  0  0  0  0
    0.2367    1.1209   -1.0725 C   0  0  0  0  0  0  0  0  0  0  0  0
    0.4478    0.6636    0.0786 C   0  0  0  0  0  0  0  0  0  0  0  0
   -0.5588    0.6397    1.0448 C   0  0  0  0  0  0  0  0  0  0  0  0
   -1.7792    1.1740    0.5682 C   0  0  0  0  0  0  0  0  0  0  0  0
   -1.9254    1.6659   -0.7477 C   0  0  0  0  0  0  0  0  0  0  0  0
   -0.9664    2.0392   -2.6955 H   0  0  0  0  0  0  0  0  0  0  0  0
   -2.8870    2.0636   -1.0552 H   0  0  0  0  0  0  0  0  0  0  0  0
   -0.4861    0.2657    2.0592 H   0  0  0  0  0  0  0  0  0  0  0  0
    2.5705   -1.3607   -0.0524 N   0  0  0  0  0  0  0  0  0  0  0  0
    3.5047   -0.8287    0.2540 N   0  0  0  0  0  0  0  0  0  0  0  0
    4.5481   -0.0158    0.6438 C   0  0  0  0  0  0  0  0  0  0  0  0
    5.8320   -0.5725    0.7969 C   0  0  0  0  0  0  0  0  0  0  0  0
    4.2395    1.3415    0.8660 C   0  0  0  0  0  0  0  0  0  0  0  0
    6.8450    0.2856    1.1926 C   0  0  0  0  0  0  0  0  0  0  0  0
    6.0104   -1.6256    0.6103 H   0  0  0  0  0  0  0  0  0  0  0  0
    5.2797    2.1690    1.2623 C   0  0  0  0  0  0  0  0  0  0  0  0
    3.2252    1.7016    0.7256 H   0  0  0  0  0  0  0  0  0  0  0  0
    6.5731    1.6444    1.4243 C   0  0  0  0  0  0  0  0  0  0  0  0
    7.8594   -0.0719    1.3313 H   0  0  0  0  0  0  0  0  0  0  0  0
    5.0971    3.2206    1.4492 H   0  0  0  0  0  0  0  0  0  0  0  0
   -2.9186    1.1888    1.5405 C   0  0  0  0  0  0  0  0  0  0  0  0
   -2.8353    0.7910    2.6828 O   0  0  0  0  0  0  0  0  0  0  0  0
   -4.0523    1.6916    1.0097 O   0  0  0  0  0  0  0  0  0  0  0  0
   -4.7290    1.6582    1.7074 H   0  0  0  0  0  0  0  0  0  0  0  0
    7.7328    2.5069    1.8525 C   0  0  0  0  0  0  0  0  0  0  0  0
    8.8515    2.0708    1.9934 O   0  0  0  0  0  0  0  0  0  0  0  0
    7.3681    3.7821    2.0485 O   0  0  0  0  0  0  0  0  0  0  0  0
    8.1568    4.2820    2.3235 H   0  0  0  0  0  0  0  0  0  0  0  0
  1  2  2  0  0  0  0
  1  6  1  0  0  0  0
  2  3  1  0  0  0  0
  3  4  2  0  0  0  0
  4  9  1  0  0  0  0
  5  4  1  0  0  0  0
  5 22  1  0  0  0  0
  6  5  2  0  0  0  0
  7  1  1  0  0  0  0
  8  6  1  0  0  0  0
 10 11  1  0  0  0  0
 11 12  1  0  0  0  0
 12 13  2  0  0  0  0
 12 14  1  0  0  0  0
 13 15  1  0  0  0  0
 14 17  2  0  0  0  0
 15 20  1  0  0  0  0
 15 19  2  0  0  0  0
 16 13  1  0  0  0  0
 17 19  1  0  0  0  0
 17 21  1  0  0  0  0
 18 14  1  0  0  0  0
 19 26  1  0  0  0  0
 22 23  2  0  0  0  0
 24 22  1  0  0  0  0
 24 25  1  0  0  0  0
 26 27  2  0  0  0  0
 26 28  1  0  0  0  0
 28 29  1  0  0  0  0
M  RAD  4   2   2   3   2  10   3  11   2
M  END
