Coordinates from ORCA-job 1g-Schema6-R11-K+-B3LYPG-6-31G_dp-scan-d49-09-n400
 OpenBabel08281819543D

 29 32  0  0  1  0  0  0  0  0999 V2000
    0.9276    2.4421    0.5238 C   0  0  0  0  0  0  0  0  0  0  0  0
    1.9004    1.4444    0.5689 C   0  0  2  0  0  0  0  0  0  0  0  0
    1.5118   -0.0040    0.5875 C   0  0  1  0  0  0  0  0  0  0  0  0
    0.0921   -0.3125    0.8507 C   0  0  0  0  0  0  0  0  0  0  0  0
   -0.8218    0.6971    0.7941 C   0  0  0  0  0  0  0  0  0  0  0  0
   -0.4046    2.0624    0.6206 C   0  0  0  0  0  0  0  0  0  0  0  0
    1.1967    3.4926    0.4877 H   0  0  0  0  0  0  0  0  0  0  0  0
   -1.1771    2.8247    0.6133 H   0  0  0  0  0  0  0  0  0  0  0  0
   -0.2176   -1.3471    0.9613 H   0  0  0  0  0  0  0  0  0  0  0  0
    2.0034   -0.8743   -0.5752 N   0  0  0  0  0  0  0  0  0  0  0  0
    2.5057   -0.7479    0.8079 N   0  0  0  0  0  0  0  0  0  0  0  0
    3.6820    0.0673    0.9004 C   0  0  0  0  0  0  0  0  0  0  0  0
    4.9946   -0.3477    1.0361 C   0  0  0  0  0  0  0  0  0  0  0  0
    3.3133    1.4378    0.7728 C   0  0  0  0  0  0  0  0  0  0  0  0
    5.9579    0.6619    1.0912 C   0  0  0  0  0  0  0  0  0  0  0  0
    5.2564   -1.3962    1.1224 H   0  0  0  0  0  0  0  0  0  0  0  0
    4.2984    2.4409    0.8346 C   0  0  0  0  0  0  0  0  0  0  0  0
    2.5810   -0.2496   -1.1623 H   0  0  0  0  0  0  0  0  0  0  0  0
    5.6187    2.0334    0.9957 C   0  0  0  0  0  0  0  0  0  0  0  0
    7.0070    0.4168    1.2236 H   0  0  0  0  0  0  0  0  0  0  0  0
    4.0526    3.4949    0.7703 H   0  0  0  0  0  0  0  0  0  0  0  0
   -2.2740    0.3307    0.9533 C   0  0  0  0  0  0  0  0  0  0  0  0
   -2.6528   -0.8050    1.1108 O   0  0  0  0  0  0  0  0  0  0  0  0
   -3.0696    1.4118    0.9011 O   0  0  0  0  0  0  0  0  0  0  0  0
   -3.9888    1.1123    1.0146 H   0  0  0  0  0  0  0  0  0  0  0  0
    6.7492    3.0190    1.0827 C   0  0  0  0  0  0  0  0  0  0  0  0
    7.9054    2.6909    1.2168 O   0  0  0  0  0  0  0  0  0  0  0  0
    6.3218    4.2911    0.9936 O   0  0  0  0  0  0  0  0  0  0  0  0
    7.1028    4.8676    1.0588 H   0  0  0  0  0  0  0  0  0  0  0  0
  1  6  2  0  0  0  0
  2  1  1  1  0  0  0
  2  3  1  0  0  0  0
  2 14  1  0  0  0  0
  3 10  1  6  0  0  0
  3 11  1  0  0  0  0
  3  4  1  0  0  0  0
  4  9  1  0  0  0  0
  5  4  2  0  0  0  0
  5 22  1  0  0  0  0
  6  5  1  0  0  0  0
  7  1  1  0  0  0  0
  8  6  1  0  0  0  0
 10 11  1  0  0  0  0
 11 12  1  0  0  0  0
 12 13  2  0  0  0  0
 13 15  1  0  0  0  0
 13 16  1  0  0  0  0
 14 17  2  0  0  0  0
 14 12  1  0  0  0  0
 15 20  1  0  0  0  0
 17 19  1  0  0  0  0
 18 10  1  0  0  0  0
 19 26  1  0  0  0  0
 19 15  2  0  0  0  0
 21 17  1  0  0  0  0
 22 23  2  0  0  0  0
 24 22  1  0  0  0  0
 24 25  1  0  0  0  0
 26 27  2  0  0  0  0
 28 29  1  0  0  0  0
 28 26  1  0  0  0  0
M  RAD  1   2   2
M  END
