Coordinates from ORCA-job 1g-Schema6-R11-K+-B3LYPG-6-31G_dp-scan-d49-09-n400
 OpenBabel08281819543D

 29 29  0  0  0  0  0  0  0  0999 V2000
   -0.9257    1.5970   -1.7439 C   0  0  0  0  0  0  0  0  0  0  0  0
    0.1987    1.0708   -1.1571 C   0  0  0  0  0  0  0  0  0  0  0  0
    0.4661    0.6433   -0.0054 C   0  0  0  0  0  0  0  0  0  0  0  0
   -0.5058    0.6485    0.9978 C   0  0  0  0  0  0  0  0  0  0  0  0
   -1.7447    1.1713    0.5576 C   0  0  0  0  0  0  0  0  0  0  0  0
   -1.9446    1.6265   -0.7641 C   0  0  0  0  0  0  0  0  0  0  0  0
   -1.0637    1.9435   -2.7596 H   0  0  0  0  0  0  0  0  0  0  0  0
   -2.9177    2.0168   -1.0436 H   0  0  0  0  0  0  0  0  0  0  0  0
   -0.3934    0.3015    2.0183 H   0  0  0  0  0  0  0  0  0  0  0  0
    2.5451   -1.3097   -0.1112 N   0  0  0  0  0  0  0  0  0  0  0  0
    3.4813   -0.7910    0.2132 N   0  0  0  0  0  0  0  0  0  0  0  0
    4.5255    0.0105    0.6254 C   0  0  0  0  0  0  0  0  0  0  0  0
    5.8012   -0.5600    0.7940 C   0  0  0  0  0  0  0  0  0  0  0  0
    4.2281    1.3689    0.8529 C   0  0  0  0  0  0  0  0  0  0  0  0
    6.8172    0.2845    1.2114 C   0  0  0  0  0  0  0  0  0  0  0  0
    5.9717   -1.6135    0.6024 H   0  0  0  0  0  0  0  0  0  0  0  0
    5.2705    2.1830    1.2709 C   0  0  0  0  0  0  0  0  0  0  0  0
    3.2200    1.7413    0.7008 H   0  0  0  0  0  0  0  0  0  0  0  0
    6.5559    1.6443    1.4486 C   0  0  0  0  0  0  0  0  0  0  0  0
    7.8256   -0.0847    1.3628 H   0  0  0  0  0  0  0  0  0  0  0  0
    5.0957    3.2351    1.4625 H   0  0  0  0  0  0  0  0  0  0  0  0
   -2.8431    1.2151    1.5750 C   0  0  0  0  0  0  0  0  0  0  0  0
   -2.7128    0.8495    2.7236 O   0  0  0  0  0  0  0  0  0  0  0  0
   -3.9969    1.7058    1.0776 O   0  0  0  0  0  0  0  0  0  0  0  0
   -4.6447    1.6934    1.8029 H   0  0  0  0  0  0  0  0  0  0  0  0
    7.7176    2.4918    1.9002 C   0  0  0  0  0  0  0  0  0  0  0  0
    8.8295    2.0435    2.0552 O   0  0  0  0  0  0  0  0  0  0  0  0
    7.3631    3.7695    2.0993 O   0  0  0  0  0  0  0  0  0  0  0  0
    8.1528    4.2591    2.3895 H   0  0  0  0  0  0  0  0  0  0  0  0
  1  2  2  0  0  0  0
  1  6  1  0  0  0  0
  2  3  1  0  0  0  0
  3  4  2  0  0  0  0
  4  9  1  0  0  0  0
  5  4  1  0  0  0  0
  5 22  1  0  0  0  0
  6  5  2  0  0  0  0
  7  1  1  0  0  0  0
  8  6  1  0  0  0  0
 10 11  1  0  0  0  0
 11 12  1  0  0  0  0
 12 13  2  0  0  0  0
 12 14  1  0  0  0  0
 13 15  1  0  0  0  0
 14 17  2  0  0  0  0
 15 20  1  0  0  0  0
 15 19  2  0  0  0  0
 16 13  1  0  0  0  0
 17 19  1  0  0  0  0
 17 21  1  0  0  0  0
 18 14  1  0  0  0  0
 19 26  1  0  0  0  0
 22 23  2  0  0  0  0
 24 22  1  0  0  0  0
 24 25  1  0  0  0  0
 26 27  2  0  0  0  0
 26 28  1  0  0  0  0
 28 29  1  0  0  0  0
M  RAD  4   2   2   3   2  10   3  11   2
M  END
