Coordinates from ORCA-job 1g-Schema6-R11-K+-B3LYPG-6-31G_dp-scan-d49-09-n400
 OpenBabel08281819543D

 29 32  0  0  1  0  0  0  0  0999 V2000
    0.9290    2.4407    0.5234 C   0  0  0  0  0  0  0  0  0  0  0  0
    1.9006    1.4416    0.5675 C   0  0  2  0  0  0  0  0  0  0  0  0
    1.5086   -0.0044    0.5837 C   0  0  1  0  0  0  0  0  0  0  0  0
    0.0900   -0.3128    0.8470 C   0  0  0  0  0  0  0  0  0  0  0  0
   -0.8228    0.6981    0.7936 C   0  0  0  0  0  0  0  0  0  0  0  0
   -0.4037    2.0630    0.6211 C   0  0  0  0  0  0  0  0  0  0  0  0
    1.1997    3.4908    0.4880 H   0  0  0  0  0  0  0  0  0  0  0  0
   -1.1750    2.8265    0.6154 H   0  0  0  0  0  0  0  0  0  0  0  0
   -0.2208   -1.3472    0.9560 H   0  0  0  0  0  0  0  0  0  0  0  0
    2.0067   -0.8768   -0.5738 N   0  0  0  0  0  0  0  0  0  0  0  0
    2.5097   -0.7545    0.8079 N   0  0  0  0  0  0  0  0  0  0  0  0
    3.6835    0.0650    0.9003 C   0  0  0  0  0  0  0  0  0  0  0  0
    4.9967   -0.3480    1.0364 C   0  0  0  0  0  0  0  0  0  0  0  0
    3.3135    1.4349    0.7720 C   0  0  0  0  0  0  0  0  0  0  0  0
    5.9589    0.6627    1.0918 C   0  0  0  0  0  0  0  0  0  0  0  0
    5.2598   -1.3961    1.1232 H   0  0  0  0  0  0  0  0  0  0  0  0
    4.2973    2.4392    0.8340 C   0  0  0  0  0  0  0  0  0  0  0  0
    2.5856   -0.2551   -1.1627 H   0  0  0  0  0  0  0  0  0  0  0  0
    5.6182    2.0337    0.9958 C   0  0  0  0  0  0  0  0  0  0  0  0
    7.0082    0.4188    1.2248 H   0  0  0  0  0  0  0  0  0  0  0  0
    4.0501    3.4929    0.7696 H   0  0  0  0  0  0  0  0  0  0  0  0
   -2.2753    0.3334    0.9540 C   0  0  0  0  0  0  0  0  0  0  0  0
   -2.6553   -0.8019    1.1108 O   0  0  0  0  0  0  0  0  0  0  0  0
   -3.0693    1.4158    0.9046 O   0  0  0  0  0  0  0  0  0  0  0  0
   -3.9888    1.1174    1.0192 H   0  0  0  0  0  0  0  0  0  0  0  0
    6.7472    3.0208    1.0831 C   0  0  0  0  0  0  0  0  0  0  0  0
    7.9038    2.6945    1.2177 O   0  0  0  0  0  0  0  0  0  0  0  0
    6.3180    4.2924    0.9937 O   0  0  0  0  0  0  0  0  0  0  0  0
    7.0983    4.8699    1.0591 H   0  0  0  0  0  0  0  0  0  0  0  0
  1  6  2  0  0  0  0
  2  1  1  1  0  0  0
  2  3  1  0  0  0  0
  2 14  1  0  0  0  0
  3 10  1  6  0  0  0
  3 11  1  0  0  0  0
  3  4  1  0  0  0  0
  4  9  1  0  0  0  0
  5  4  2  0  0  0  0
  5 22  1  0  0  0  0
  6  5  1  0  0  0  0
  7  1  1  0  0  0  0
  8  6  1  0  0  0  0
 10 11  1  0  0  0  0
 11 12  1  0  0  0  0
 12 13  2  0  0  0  0
 13 15  1  0  0  0  0
 13 16  1  0  0  0  0
 14 17  2  0  0  0  0
 14 12  1  0  0  0  0
 15 20  1  0  0  0  0
 17 19  1  0  0  0  0
 18 10  1  0  0  0  0
 19 26  1  0  0  0  0
 19 15  2  0  0  0  0
 21 17  1  0  0  0  0
 22 23  2  0  0  0  0
 24 22  1  0  0  0  0
 24 25  1  0  0  0  0
 26 27  2  0  0  0  0
 28 29  1  0  0  0  0
 28 26  1  0  0  0  0
M  RAD  1   2   2
M  END
