Coordinates from ORCA-job 1g-Schema6-R11-K+-B3LYPG-6-31G_dp-scan-d49-09-n400
 OpenBabel08281819543D

 29 32  0  0  1  0  0  0  0  0999 V2000
    0.9331    2.4367    0.5238 C   0  0  0  0  0  0  0  0  0  0  0  0
    1.9012    1.4332    0.5640 C   0  0  2  0  0  0  0  0  0  0  0  0
    1.4988   -0.0057    0.5727 C   0  0  1  0  0  0  0  0  0  0  0  0
    0.0834   -0.3137    0.8355 C   0  0  0  0  0  0  0  0  0  0  0  0
   -0.8258    0.7011    0.7922 C   0  0  0  0  0  0  0  0  0  0  0  0
   -0.4009    2.0649    0.6239 C   0  0  0  0  0  0  0  0  0  0  0  0
    1.2085    3.4856    0.4909 H   0  0  0  0  0  0  0  0  0  0  0  0
   -1.1687    2.8319    0.6232 H   0  0  0  0  0  0  0  0  0  0  0  0
   -0.2305   -1.3477    0.9392 H   0  0  0  0  0  0  0  0  0  0  0  0
    2.0162   -0.8846   -0.5690 N   0  0  0  0  0  0  0  0  0  0  0  0
    2.5220   -0.7739    0.8085 N   0  0  0  0  0  0  0  0  0  0  0  0
    3.6883    0.0582    0.9002 C   0  0  0  0  0  0  0  0  0  0  0  0
    5.0032   -0.3487    1.0378 C   0  0  0  0  0  0  0  0  0  0  0  0
    3.3144    1.4262    0.7700 C   0  0  0  0  0  0  0  0  0  0  0  0
    5.9623    0.6654    1.0934 C   0  0  0  0  0  0  0  0  0  0  0  0
    5.2701   -1.3957    1.1261 H   0  0  0  0  0  0  0  0  0  0  0  0
    4.2941    2.4342    0.8323 C   0  0  0  0  0  0  0  0  0  0  0  0
    2.5988   -0.2718   -1.1632 H   0  0  0  0  0  0  0  0  0  0  0  0
    5.6167    2.0345    0.9959 C   0  0  0  0  0  0  0  0  0  0  0  0
    7.0122    0.4250    1.2282 H   0  0  0  0  0  0  0  0  0  0  0  0
    4.0427    3.4868    0.7672 H   0  0  0  0  0  0  0  0  0  0  0  0
   -2.2791    0.3417    0.9560 C   0  0  0  0  0  0  0  0  0  0  0  0
   -2.6631   -0.7928    1.1086 O   0  0  0  0  0  0  0  0  0  0  0  0
   -3.0688    1.4275    0.9144 O   0  0  0  0  0  0  0  0  0  0  0  0
   -3.9892    1.1326    1.0306 H   0  0  0  0  0  0  0  0  0  0  0  0
    6.7415    3.0263    1.0835 C   0  0  0  0  0  0  0  0  0  0  0  0
    7.8994    2.7051    1.2194 O   0  0  0  0  0  0  0  0  0  0  0  0
    6.3070    4.2961    0.9929 O   0  0  0  0  0  0  0  0  0  0  0  0
    7.0848    4.8768    1.0587 H   0  0  0  0  0  0  0  0  0  0  0  0
  1  6  2  0  0  0  0
  2  1  1  1  0  0  0
  2  3  1  0  0  0  0
  2 14  1  0  0  0  0
  3 10  1  6  0  0  0
  3 11  1  0  0  0  0
  3  4  1  0  0  0  0
  4  9  1  0  0  0  0
  5  4  2  0  0  0  0
  5 22  1  0  0  0  0
  6  5  1  0  0  0  0
  7  1  1  0  0  0  0
  8  6  1  0  0  0  0
 10 11  1  0  0  0  0
 11 12  1  0  0  0  0
 12 13  2  0  0  0  0
 13 15  1  0  0  0  0
 13 16  1  0  0  0  0
 14 17  2  0  0  0  0
 14 12  1  0  0  0  0
 15 20  1  0  0  0  0
 17 19  1  0  0  0  0
 18 10  1  0  0  0  0
 19 26  1  0  0  0  0
 19 15  2  0  0  0  0
 21 17  1  0  0  0  0
 22 23  2  0  0  0  0
 24 22  1  0  0  0  0
 24 25  1  0  0  0  0
 26 27  2  0  0  0  0
 28 29  1  0  0  0  0
 28 26  1  0  0  0  0
M  RAD  1   2   2
M  END
