Coordinates from ORCA-job 1g-Schema6-R11-K+-B3LYPG-6-31G_dp-scan-d49-09-n400
 OpenBabel08281819543D

 29 29  0  0  0  0  0  0  0  0999 V2000
   -0.8730    1.4614   -1.8626 C   0  0  0  0  0  0  0  0  0  0  0  0
    0.2195    0.6784   -1.6599 C   0  0  0  0  0  0  0  0  0  0  0  0
    0.8373    0.1443   -0.6797 C   0  0  0  0  0  0  0  0  0  0  0  0
    0.2486    0.3391    0.5816 C   0  0  0  0  0  0  0  0  0  0  0  0
   -0.9210    1.1253    0.5903 C   0  0  0  0  0  0  0  0  0  0  0  0
   -1.4684    1.6632   -0.5913 C   0  0  0  0  0  0  0  0  0  0  0  0
   -1.2703    1.8617   -2.7861 H   0  0  0  0  0  0  0  0  0  0  0  0
   -2.3810    2.2491   -0.5425 H   0  0  0  0  0  0  0  0  0  0  0  0
    0.6365   -0.0696    1.5097 H   0  0  0  0  0  0  0  0  0  0  0  0
    2.2345   -1.2130   -0.7978 N   0  0  0  0  0  0  0  0  0  0  0  0
    3.2229   -0.9062   -0.2981 N   0  0  0  0  0  0  0  0  0  0  0  0
    4.0892   -0.0189    0.3275 C   0  0  0  0  0  0  0  0  0  0  0  0
    5.2008   -0.5673    0.9911 C   0  0  0  0  0  0  0  0  0  0  0  0
    3.8524    1.3674    0.2520 C   0  0  0  0  0  0  0  0  0  0  0  0
    6.0805    0.3006    1.6207 C   0  0  0  0  0  0  0  0  0  0  0  0
    5.3488   -1.6416    1.0076 H   0  0  0  0  0  0  0  0  0  0  0  0
    4.7564    2.2141    0.8772 C   0  0  0  0  0  0  0  0  0  0  0  0
    2.9950    1.7537   -0.2853 H   0  0  0  0  0  0  0  0  0  0  0  0
    5.8622    1.6846    1.5634 C   0  0  0  0  0  0  0  0  0  0  0  0
    6.9485   -0.0689    2.1550 H   0  0  0  0  0  0  0  0  0  0  0  0
    4.6129    3.2878    0.8384 H   0  0  0  0  0  0  0  0  0  0  0  0
   -1.5538    1.3595    1.9313 C   0  0  0  0  0  0  0  0  0  0  0  0
   -1.0833    0.9459    2.9676 O   0  0  0  0  0  0  0  0  0  0  0  0
   -2.6883    2.0766    1.8472 O   0  0  0  0  0  0  0  0  0  0  0  0
   -3.0353    2.1807    2.7502 H   0  0  0  0  0  0  0  0  0  0  0  0
    6.8632    2.5671    2.2577 C   0  0  0  0  0  0  0  0  0  0  0  0
    7.8218    2.1329    2.8540 O   0  0  0  0  0  0  0  0  0  0  0  0
    6.5645    3.8713    2.1346 O   0  0  0  0  0  0  0  0  0  0  0  0
    7.2516    4.3760    2.6034 H   0  0  0  0  0  0  0  0  0  0  0  0
  1  2  2  0  0  0  0
  1  6  1  0  0  0  0
  2  3  1  0  0  0  0
  3  4  2  0  0  0  0
  4  5  1  0  0  0  0
  4  9  1  0  0  0  0
  5 22  1  0  0  0  0
  6  8  1  0  0  0  0
  6  5  2  0  0  0  0
  7  1  1  0  0  0  0
 10 11  2  0  0  0  0
 11 12  1  0  0  0  0
 12 13  1  0  0  0  0
 13 16  1  0  0  0  0
 13 15  2  0  0  0  0
 14 12  2  0  0  0  0
 14 17  1  0  0  0  0
 15 20  1  0  0  0  0
 17 19  2  0  0  0  0
 18 14  1  0  0  0  0
 19 15  1  0  0  0  0
 19 26  1  0  0  0  0
 21 17  1  0  0  0  0
 22 23  2  0  0  0  0
 24 22  1  0  0  0  0
 24 25  1  0  0  0  0
 26 27  2  0  0  0  0
 28 26  1  0  0  0  0
 28 29  1  0  0  0  0
M  RAD  3   2   2   3   2  10   2
M  END
