Coordinates from ORCA-job 1g-Schema6-R11-K+-B3LYPG-6-31G_dp-scan-d49-09-n400
 OpenBabel08281819543D

 29 29  0  0  0  0  0  0  0  0999 V2000
   -1.0116    1.4902   -1.8667 C   0  0  0  0  0  0  0  0  0  0  0  0
    0.1287    0.8934   -1.3996 C   0  0  0  0  0  0  0  0  0  0  0  0
    0.5284    0.4630   -0.2850 C   0  0  0  0  0  0  0  0  0  0  0  0
   -0.3241    0.5576    0.8215 C   0  0  0  0  0  0  0  0  0  0  0  0
   -1.5685    1.1612    0.5264 C   0  0  0  0  0  0  0  0  0  0  0  0
   -1.8992    1.6080   -0.7709 C   0  0  0  0  0  0  0  0  0  0  0  0
   -1.2464    1.8269   -2.8677 H   0  0  0  0  0  0  0  0  0  0  0  0
   -2.8708    2.0597   -0.9420 H   0  0  0  0  0  0  0  0  0  0  0  0
   -0.1137    0.2176    1.8293 H   0  0  0  0  0  0  0  0  0  0  0  0
    2.4760   -1.2875   -0.2377 N   0  0  0  0  0  0  0  0  0  0  0  0
    3.4080   -0.7845    0.1304 N   0  0  0  0  0  0  0  0  0  0  0  0
    4.4301    0.0219    0.5892 C   0  0  0  0  0  0  0  0  0  0  0  0
    5.6971   -0.5474    0.8144 C   0  0  0  0  0  0  0  0  0  0  0  0
    4.1262    1.3805    0.8042 C   0  0  0  0  0  0  0  0  0  0  0  0
    6.6954    0.2956    1.2762 C   0  0  0  0  0  0  0  0  0  0  0  0
    5.8748   -1.6010    0.6305 H   0  0  0  0  0  0  0  0  0  0  0  0
    5.1495    2.1944    1.2677 C   0  0  0  0  0  0  0  0  0  0  0  0
    3.1269    1.7550    0.6088 H   0  0  0  0  0  0  0  0  0  0  0  0
    6.4256    1.6552    1.5019 C   0  0  0  0  0  0  0  0  0  0  0  0
    7.6956   -0.0751    1.4715 H   0  0  0  0  0  0  0  0  0  0  0  0
    4.9671    3.2466    1.4514 H   0  0  0  0  0  0  0  0  0  0  0  0
   -2.5243    1.3021    1.6711 C   0  0  0  0  0  0  0  0  0  0  0  0
   -2.2721    0.9543    2.8047 O   0  0  0  0  0  0  0  0  0  0  0  0
   -3.6973    1.8577    1.3060 O   0  0  0  0  0  0  0  0  0  0  0  0
   -4.2499    1.9050    2.1049 H   0  0  0  0  0  0  0  0  0  0  0  0
    7.5663    2.5021    2.0040 C   0  0  0  0  0  0  0  0  0  0  0  0
    8.6705    2.0545    2.2087 O   0  0  0  0  0  0  0  0  0  0  0  0
    7.2036    3.7801    2.1894 O   0  0  0  0  0  0  0  0  0  0  0  0
    7.9806    4.2681    2.5144 H   0  0  0  0  0  0  0  0  0  0  0  0
  1  2  2  0  0  0  0
  1  6  1  0  0  0  0
  2  3  1  0  0  0  0
  3  4  2  0  0  0  0
  4  9  1  0  0  0  0
  5  4  1  0  0  0  0
  5 22  1  0  0  0  0
  6  5  2  0  0  0  0
  7  1  1  0  0  0  0
  8  6  1  0  0  0  0
 10 11  1  0  0  0  0
 11 12  1  0  0  0  0
 12 14  2  0  0  0  0
 12 13  1  0  0  0  0
 13 15  2  0  0  0  0
 14 17  1  0  0  0  0
 15 20  1  0  0  0  0
 15 19  1  0  0  0  0
 16 13  1  0  0  0  0
 17 21  1  0  0  0  0
 17 19  2  0  0  0  0
 18 14  1  0  0  0  0
 19 26  1  0  0  0  0
 22 23  2  0  0  0  0
 24 22  1  0  0  0  0
 24 25  1  0  0  0  0
 26 28  1  0  0  0  0
 26 27  2  0  0  0  0
 28 29  1  0  0  0  0
M  RAD  4   2   2   3   2  10   3  11   2
M  END
