Coordinates from ORCA-job 1g-Schema6-R11-K+-B3LYPG-6-31G_dp-scan-d49-09-n400
 OpenBabel08281819543D

 29 29  0  0  0  0  0  0  0  0999 V2000
   -1.0688    1.2713   -1.9642 C   0  0  0  0  0  0  0  0  0  0  0  0
    0.0767    0.5919   -1.6657 C   0  0  0  0  0  0  0  0  0  0  0  0
    0.6689    0.1955   -0.6214 C   0  0  0  0  0  0  0  0  0  0  0  0
    0.0534    0.4645    0.6093 C   0  0  0  0  0  0  0  0  0  0  0  0
   -1.1640    1.1758    0.5098 C   0  0  0  0  0  0  0  0  0  0  0  0
   -1.7075    1.5609   -0.7330 C   0  0  0  0  0  0  0  0  0  0  0  0
   -1.4644    1.5582   -2.9294 H   0  0  0  0  0  0  0  0  0  0  0  0
   -2.6500    2.0983   -0.7573 H   0  0  0  0  0  0  0  0  0  0  0  0
    0.4263    0.1697    1.5850 H   0  0  0  0  0  0  0  0  0  0  0  0
    2.3767   -1.3228   -0.5686 N   0  0  0  0  0  0  0  0  0  0  0  0
    3.2743   -0.8231   -0.1045 N   0  0  0  0  0  0  0  0  0  0  0  0
    4.2193    0.0109    0.4601 C   0  0  0  0  0  0  0  0  0  0  0  0
    5.4743   -0.5333    0.7912 C   0  0  0  0  0  0  0  0  0  0  0  0
    3.8751    1.3606    0.6706 C   0  0  0  0  0  0  0  0  0  0  0  0
    6.4120    0.3174    1.3556 C   0  0  0  0  0  0  0  0  0  0  0  0
    5.6885   -1.5799    0.6065 H   0  0  0  0  0  0  0  0  0  0  0  0
    4.8365    2.1854    1.2370 C   0  0  0  0  0  0  0  0  0  0  0  0
    2.8921    1.7254    0.3966 H   0  0  0  0  0  0  0  0  0  0  0  0
    6.0971    1.6671    1.5778 C   0  0  0  0  0  0  0  0  0  0  0  0
    7.3971   -0.0398    1.6339 H   0  0  0  0  0  0  0  0  0  0  0  0
    4.6171    3.2305    1.4198 H   0  0  0  0  0  0  0  0  0  0  0  0
   -1.8481    1.5011    1.8031 C   0  0  0  0  0  0  0  0  0  0  0  0
   -1.3857    1.2290    2.8901 O   0  0  0  0  0  0  0  0  0  0  0  0
   -3.0249    2.1311    1.6257 O   0  0  0  0  0  0  0  0  0  0  0  0
   -3.3958    2.3006    2.5087 H   0  0  0  0  0  0  0  0  0  0  0  0
    7.1691    2.5262    2.1948 C   0  0  0  0  0  0  0  0  0  0  0  0
    8.2600    2.0982    2.4928 O   0  0  0  0  0  0  0  0  0  0  0  0
    6.7657    3.7947    2.3663 O   0  0  0  0  0  0  0  0  0  0  0  0
    7.5018    4.2898    2.7667 H   0  0  0  0  0  0  0  0  0  0  0  0
  1  2  2  0  0  0  0
  1  6  1  0  0  0  0
  2  3  1  0  0  0  0
  3  4  2  0  0  0  0
  4  9  1  0  0  0  0
  5  4  1  0  0  0  0
  5 22  1  0  0  0  0
  6  5  2  0  0  0  0
  7  1  1  0  0  0  0
  8  6  1  0  0  0  0
 10 11  1  0  0  0  0
 11 12  1  0  0  0  0
 12 14  2  0  0  0  0
 12 13  1  0  0  0  0
 13 15  2  0  0  0  0
 14 17  1  0  0  0  0
 15 19  1  0  0  0  0
 15 20  1  0  0  0  0
 16 13  1  0  0  0  0
 17 21  1  0  0  0  0
 17 19  2  0  0  0  0
 18 14  1  0  0  0  0
 19 26  1  0  0  0  0
 22 23  2  0  0  0  0
 24 22  1  0  0  0  0
 24 25  1  0  0  0  0
 26 28  1  0  0  0  0
 26 27  2  0  0  0  0
 28 29  1  0  0  0  0
M  RAD  4   2   2   3   2  10   3  11   2
M  END
