Coordinates from ORCA-job 1g-Schema6-R11-K+-B3LYPG-6-31G_dp-scan-d49-09-n400
 OpenBabel08281819543D

 29 29  0  0  0  0  0  0  0  0999 V2000
   -0.8810    1.9557   -1.7151 C   0  0  0  0  0  0  0  0  0  0  0  0
    0.3363    1.6335   -1.1661 C   0  0  0  0  0  0  0  0  0  0  0  0
    0.7089    1.2332   -0.0356 C   0  0  0  0  0  0  0  0  0  0  0  0
   -0.2238    1.0405    0.9869 C   0  0  0  0  0  0  0  0  0  0  0  0
   -1.5503    1.3291    0.5869 C   0  0  0  0  0  0  0  0  0  0  0  0
   -1.8641    1.7712   -0.7167 C   0  0  0  0  0  0  0  0  0  0  0  0
   -1.1049    2.2975   -2.7170 H   0  0  0  0  0  0  0  0  0  0  0  0
   -2.8992    1.9826   -0.9650 H   0  0  0  0  0  0  0  0  0  0  0  0
   -0.0240    0.7076    1.9989 H   0  0  0  0  0  0  0  0  0  0  0  0
    2.7772   -1.8562   -0.1856 N   0  0  0  0  0  0  0  0  0  0  0  0
    3.5544   -1.1348    0.1588 N   0  0  0  0  0  0  0  0  0  0  0  0
    4.4986   -0.2272    0.5864 C   0  0  0  0  0  0  0  0  0  0  0  0
    5.7787   -0.7096    0.9331 C   0  0  0  0  0  0  0  0  0  0  0  0
    4.1141    1.1272    0.6485 C   0  0  0  0  0  0  0  0  0  0  0  0
    6.7039    0.2259    1.3621 C   0  0  0  0  0  0  0  0  0  0  0  0
    6.0178   -1.7650    0.8640 H   0  0  0  0  0  0  0  0  0  0  0  0
    5.0715    2.0319    1.0846 C   0  0  0  0  0  0  0  0  0  0  0  0
    3.1054    1.4230    0.3661 H   0  0  0  0  0  0  0  0  0  0  0  0
    6.3554    1.5860    1.4384 C   0  0  0  0  0  0  0  0  0  0  0  0
    7.7076   -0.0705    1.6464 H   0  0  0  0  0  0  0  0  0  0  0  0
    4.8282    3.0857    1.1538 H   0  0  0  0  0  0  0  0  0  0  0  0
   -2.6113    1.1392    1.6256 C   0  0  0  0  0  0  0  0  0  0  0  0
   -2.3908    0.7511    2.7535 O   0  0  0  0  0  0  0  0  0  0  0  0
   -3.8464    1.4428    1.1754 O   0  0  0  0  0  0  0  0  0  0  0  0
   -4.4600    1.2890    1.9139 H   0  0  0  0  0  0  0  0  0  0  0  0
    7.4240    2.5356    1.9178 C   0  0  0  0  0  0  0  0  0  0  0  0
    8.5331    2.1650    2.2243 O   0  0  0  0  0  0  0  0  0  0  0  0
    6.9911    3.8032    1.9573 O   0  0  0  0  0  0  0  0  0  0  0  0
    7.7218    4.3622    2.2753 H   0  0  0  0  0  0  0  0  0  0  0  0
  1  2  2  0  0  0  0
  1  6  1  0  0  0  0
  2  3  1  0  0  0  0
  3  4  2  0  0  0  0
  4  9  1  0  0  0  0
  5  4  1  0  0  0  0
  5 22  1  0  0  0  0
  6  5  2  0  0  0  0
  7  1  1  0  0  0  0
  8  6  1  0  0  0  0
 10 11  1  0  0  0  0
 11 12  1  0  0  0  0
 12 14  2  0  0  0  0
 12 13  1  0  0  0  0
 13 15  2  0  0  0  0
 14 17  1  0  0  0  0
 15 19  1  0  0  0  0
 15 20  1  0  0  0  0
 16 13  1  0  0  0  0
 17 21  1  0  0  0  0
 17 19  2  0  0  0  0
 18 14  1  0  0  0  0
 19 26  1  0  0  0  0
 22 23  2  0  0  0  0
 24 22  1  0  0  0  0
 24 25  1  0  0  0  0
 26 28  1  0  0  0  0
 26 27  2  0  0  0  0
 28 29  1  0  0  0  0
M  RAD  4   2   2   3   2  10   3  11   2
M  END
