Coordinates from ORCA-job 1g-Schema6-R11-K+-B3LYPG-6-31G_dp-scan-d49-09-n400
 OpenBabel08281819543D

 29 31  0  0  0  0  0  0  0  0999 V2000
    0.9064    2.4664    0.5551 C   0  0  0  0  0  0  0  0  0  0  0  0
    1.8972    1.4945    0.6018 C   0  0  0  0  0  0  0  0  0  0  0  0
    1.5681   -0.0023    0.6578 C   0  0  0  0  0  0  0  0  0  0  0  0
    0.1214   -0.3108    0.8976 C   0  0  0  0  0  0  0  0  0  0  0  0
   -0.8088    0.6825    0.7984 C   0  0  0  0  0  0  0  0  0  0  0  0
   -0.4200    2.0531    0.6313 C   0  0  0  0  0  0  0  0  0  0  0  0
    1.1479    3.5243    0.5233 H   0  0  0  0  0  0  0  0  0  0  0  0
   -1.2097    2.7972    0.6084 H   0  0  0  0  0  0  0  0  0  0  0  0
   -0.1781   -1.3489    1.0101 H   0  0  0  0  0  0  0  0  0  0  0  0
    1.9500   -0.8598   -0.5859 N   0  0  0  0  0  0  0  0  0  0  0  0
    2.4419   -0.6349    0.8173 N   0  0  0  0  0  0  0  0  0  0  0  0
    3.6627    0.1086    0.9080 C   0  0  0  0  0  0  0  0  0  0  0  0
    4.9636   -0.3398    1.0415 C   0  0  0  0  0  0  0  0  0  0  0  0
    3.3121    1.4865    0.7867 C   0  0  0  0  0  0  0  0  0  0  0  0
    5.9451    0.6516    1.0866 C   0  0  0  0  0  0  0  0  0  0  0  0
    5.2038   -1.3934    1.1263 H   0  0  0  0  0  0  0  0  0  0  0  0
    4.3195    2.4680    0.8391 C   0  0  0  0  0  0  0  0  0  0  0  0
    2.4875   -0.1781   -1.1501 H   0  0  0  0  0  0  0  0  0  0  0  0
    5.6315    2.0305    0.9899 C   0  0  0  0  0  0  0  0  0  0  0  0
    6.9905    0.3875    1.2105 H   0  0  0  0  0  0  0  0  0  0  0  0
    4.0973    3.5270    0.7725 H   0  0  0  0  0  0  0  0  0  0  0  0
   -2.2574    0.2864    0.9189 C   0  0  0  0  0  0  0  0  0  0  0  0
   -2.6183   -0.8566    1.0660 O   0  0  0  0  0  0  0  0  0  0  0  0
   -3.0739    1.3509    0.8463 O   0  0  0  0  0  0  0  0  0  0  0  0
   -3.9890    1.0315    0.9360 H   0  0  0  0  0  0  0  0  0  0  0  0
    6.7843    2.9916    1.0656 C   0  0  0  0  0  0  0  0  0  0  0  0
    7.9336    2.6381    1.1944 O   0  0  0  0  0  0  0  0  0  0  0  0
    6.3847    4.2722    0.9730 O   0  0  0  0  0  0  0  0  0  0  0  0
    7.1785    4.8318    1.0306 H   0  0  0  0  0  0  0  0  0  0  0  0
  1  2  2  0  0  0  0
  1  6  1  0  0  0  0
  2  3  1  0  0  0  0
  2 14  1  0  0  0  0
  3 11  1  0  0  0  0
  3  4  2  0  0  0  0
  4  9  1  0  0  0  0
  5  4  1  0  0  0  0
  5 22  1  0  0  0  0
  6  5  2  0  0  0  0
  7  1  1  0  0  0  0
  8  6  1  0  0  0  0
 10 11  1  0  0  0  0
 11 12  1  0  0  0  0
 12 13  2  0  0  0  0
 13 15  1  0  0  0  0
 13 16  1  0  0  0  0
 14 17  2  0  0  0  0
 14 12  1  0  0  0  0
 15 20  1  0  0  0  0
 17 19  1  0  0  0  0
 18 10  1  0  0  0  0
 19 26  1  0  0  0  0
 19 15  2  0  0  0  0
 21 17  1  0  0  0  0
 22 23  2  0  0  0  0
 24 22  1  0  0  0  0
 24 25  1  0  0  0  0
 26 27  2  0  0  0  0
 28 29  1  0  0  0  0
 28 26  1  0  0  0  0
M  RAD  1  10   2
M  END
