Coordinates from ORCA-job 1g-Schema6-R11-K+-B3LYPG-6-31G_dp-scan-d49-09-n400
 OpenBabel08281819543D

 29 29  0  0  0  0  0  0  0  0999 V2000
   -0.8857    1.4518   -1.8698 C   0  0  0  0  0  0  0  0  0  0  0  0
    0.2106    0.6748   -1.6610 C   0  0  0  0  0  0  0  0  0  0  0  0
    0.8256    0.1474   -0.6771 C   0  0  0  0  0  0  0  0  0  0  0  0
    0.2350    0.3445    0.5826 C   0  0  0  0  0  0  0  0  0  0  0  0
   -0.9377    1.1268    0.5848 C   0  0  0  0  0  0  0  0  0  0  0  0
   -1.4841    1.6575   -0.6007 C   0  0  0  0  0  0  0  0  0  0  0  0
   -1.2819    1.8475   -2.7957 H   0  0  0  0  0  0  0  0  0  0  0  0
   -2.3979    2.2418   -0.5558 H   0  0  0  0  0  0  0  0  0  0  0  0
    0.6209   -0.0594    1.5136 H   0  0  0  0  0  0  0  0  0  0  0  0
    2.2435   -1.2232   -0.7825 N   0  0  0  0  0  0  0  0  0  0  0  0
    3.2228   -0.8971   -0.2829 N   0  0  0  0  0  0  0  0  0  0  0  0
    4.0963   -0.0148    0.3378 C   0  0  0  0  0  0  0  0  0  0  0  0
    5.2179   -0.5658    0.9823 C   0  0  0  0  0  0  0  0  0  0  0  0
    3.8524    1.3710    0.2778 C   0  0  0  0  0  0  0  0  0  0  0  0
    6.1033    0.3003    1.6064 C   0  0  0  0  0  0  0  0  0  0  0  0
    5.3696   -1.6397    0.9885 H   0  0  0  0  0  0  0  0  0  0  0  0
    4.7618    2.2155    0.8983 C   0  0  0  0  0  0  0  0  0  0  0  0
    2.9852    1.7578   -0.2432 H   0  0  0  0  0  0  0  0  0  0  0  0
    5.8791    1.6840    1.5640 C   0  0  0  0  0  0  0  0  0  0  0  0
    6.9798   -0.0704    2.1259 H   0  0  0  0  0  0  0  0  0  0  0  0
    4.6134    3.2889    0.8717 H   0  0  0  0  0  0  0  0  0  0  0  0
   -1.5745    1.3648    1.9229 C   0  0  0  0  0  0  0  0  0  0  0  0
   -1.1053    0.9579    2.9626 O   0  0  0  0  0  0  0  0  0  0  0  0
   -2.7115    2.0777    1.8333 O   0  0  0  0  0  0  0  0  0  0  0  0
   -3.0603    2.1844    2.7352 H   0  0  0  0  0  0  0  0  0  0  0  0
    6.8864    2.5641    2.2524 C   0  0  0  0  0  0  0  0  0  0  0  0
    7.8544    2.1279    2.8317 O   0  0  0  0  0  0  0  0  0  0  0  0
    6.5812    3.8680    2.1450 O   0  0  0  0  0  0  0  0  0  0  0  0
    7.2725    4.3715    2.6091 H   0  0  0  0  0  0  0  0  0  0  0  0
  1  2  2  0  0  0  0
  1  6  1  0  0  0  0
  2  3  1  0  0  0  0
  3  4  2  0  0  0  0
  4  5  1  0  0  0  0
  4  9  1  0  0  0  0
  5 22  1  0  0  0  0
  6  8  1  0  0  0  0
  6  5  2  0  0  0  0
  7  1  1  0  0  0  0
 10 11  1  0  0  0  0
 11 12  1  0  0  0  0
 12 13  1  0  0  0  0
 13 16  1  0  0  0  0
 13 15  2  0  0  0  0
 14 12  2  0  0  0  0
 14 17  1  0  0  0  0
 15 20  1  0  0  0  0
 17 19  2  0  0  0  0
 18 14  1  0  0  0  0
 19 15  1  0  0  0  0
 19 26  1  0  0  0  0
 21 17  1  0  0  0  0
 22 23  2  0  0  0  0
 24 22  1  0  0  0  0
 24 25  1  0  0  0  0
 26 27  2  0  0  0  0
 28 26  1  0  0  0  0
 28 29  1  0  0  0  0
M  RAD  4   2   2   3   2  10   3  11   2
M  END
