Coordinates from ORCA-job 1g-Schema6-R11-K+-B3LYPG-6-31G_dp-scan-d49-09-n400
 OpenBabel08281819543D

 29 30  0  0  0  0  0  0  0  0999 V2000
   -0.7064    1.5203   -1.7676 C   0  0  0  0  0  0  0  0  0  0  0  0
    0.2729    0.5943   -1.7287 C   0  0  0  0  0  0  0  0  0  0  0  0
    1.0335   -0.0079   -0.8359 C   0  0  0  0  0  0  0  0  0  0  0  0
    0.5619    0.2422    0.4809 C   0  0  0  0  0  0  0  0  0  0  0  0
   -0.5214    1.1082    0.6551 C   0  0  0  0  0  0  0  0  0  0  0  0
   -1.1556    1.7282   -0.4375 C   0  0  0  0  0  0  0  0  0  0  0  0
   -1.1968    1.9445   -2.6361 H   0  0  0  0  0  0  0  0  0  0  0  0
   -2.0457    2.3322   -0.2866 H   0  0  0  0  0  0  0  0  0  0  0  0
    1.0654   -0.1842    1.3442 H   0  0  0  0  0  0  0  0  0  0  0  0
    2.1040   -1.0524   -1.1029 N   0  0  0  0  0  0  0  0  0  0  0  0
    3.1917   -1.0360   -0.5846 N   0  0  0  0  0  0  0  0  0  0  0  0
    3.9083   -0.0755    0.1433 C   0  0  0  0  0  0  0  0  0  0  0  0
    4.8242   -0.5743    1.0877 C   0  0  0  0  0  0  0  0  0  0  0  0
    3.8029    1.3037   -0.1283 C   0  0  0  0  0  0  0  0  0  0  0  0
    5.5784    0.3238    1.8281 C   0  0  0  0  0  0  0  0  0  0  0  0
    4.9108   -1.6458    1.2328 H   0  0  0  0  0  0  0  0  0  0  0  0
    4.5930    2.1847    0.5961 C   0  0  0  0  0  0  0  0  0  0  0  0
    3.1506    1.6693   -0.9129 H   0  0  0  0  0  0  0  0  0  0  0  0
    5.4677    1.7004    1.5834 C   0  0  0  0  0  0  0  0  0  0  0  0
    6.2759   -0.0167    2.5853 H   0  0  0  0  0  0  0  0  0  0  0  0
    4.5464    3.2494    0.3982 H   0  0  0  0  0  0  0  0  0  0  0  0
   -0.9595    1.3548    2.0730 C   0  0  0  0  0  0  0  0  0  0  0  0
   -0.3891    0.8794    3.0278 O   0  0  0  0  0  0  0  0  0  0  0  0
   -2.0357    2.1534    2.1377 O   0  0  0  0  0  0  0  0  0  0  0  0
   -2.2681    2.2673    3.0759 H   0  0  0  0  0  0  0  0  0  0  0  0
    6.3352    2.6182    2.3952 C   0  0  0  0  0  0  0  0  0  0  0  0
    7.0942    2.2275    3.2528 O   0  0  0  0  0  0  0  0  0  0  0  0
    6.1690    3.9108    2.0593 O   0  0  0  0  0  0  0  0  0  0  0  0
    6.7648    4.4354    2.6215 H   0  0  0  0  0  0  0  0  0  0  0  0
  1  2  2  0  0  0  0
  1  6  1  0  0  0  0
  2  3  1  0  0  0  0
  3  4  2  0  0  0  0
  4  5  1  0  0  0  0
  4  9  1  0  0  0  0
  5 22  1  0  0  0  0
  6  8  1  0  0  0  0
  6  5  2  0  0  0  0
  7  1  1  0  0  0  0
 10  3  1  0  0  0  0
 10 11  2  0  0  0  0
 11 12  1  0  0  0  0
 12 13  1  0  0  0  0
 13 16  1  0  0  0  0
 13 15  2  0  0  0  0
 14 12  2  0  0  0  0
 14 17  1  0  0  0  0
 15 20  1  0  0  0  0
 17 19  2  0  0  0  0
 18 14  1  0  0  0  0
 19 15  1  0  0  0  0
 19 26  1  0  0  0  0
 21 17  1  0  0  0  0
 22 24  1  0  0  0  0
 22 23  2  0  0  0  0
 24 25  1  0  0  0  0
 26 27  2  0  0  0  0
 28 26  1  0  0  0  0
 28 29  1  0  0  0  0
M  RAD  1   2   2
M  END
