Coordinates from ORCA-job 1g-Schema6-R11-K+-B3LYPG-6-31G_dp-scan-d49-09-n400
 OpenBabel08281819543D

 29 29  0  0  0  0  0  0  0  0999 V2000
   -0.8640    1.6753   -1.6765 C   0  0  0  0  0  0  0  0  0  0  0  0
    0.2365    1.1296   -1.0590 C   0  0  0  0  0  0  0  0  0  0  0  0
    0.4394    0.6668    0.0913 C   0  0  0  0  0  0  0  0  0  0  0  0
   -0.5736    0.6357    1.0501 C   0  0  0  0  0  0  0  0  0  0  0  0
   -1.7914    1.1714    0.5675 C   0  0  0  0  0  0  0  0  0  0  0  0
   -1.9285    1.6705   -0.7465 C   0  0  0  0  0  0  0  0  0  0  0  0
   -0.9558    2.0561   -2.6852 H   0  0  0  0  0  0  0  0  0  0  0  0
   -2.8883    2.0689   -1.0586 H   0  0  0  0  0  0  0  0  0  0  0  0
   -0.5078    0.2566    2.0630 H   0  0  0  0  0  0  0  0  0  0  0  0
    2.5717   -1.3599   -0.0346 N   0  0  0  0  0  0  0  0  0  0  0  0
    3.5067   -0.8270    0.2673 N   0  0  0  0  0  0  0  0  0  0  0  0
    4.5524   -0.0138    0.6514 C   0  0  0  0  0  0  0  0  0  0  0  0
    5.8362   -0.5721    0.7995 C   0  0  0  0  0  0  0  0  0  0  0  0
    4.2464    1.3439    0.8729 C   0  0  0  0  0  0  0  0  0  0  0  0
    6.8521    0.2853    1.1896 C   0  0  0  0  0  0  0  0  0  0  0  0
    6.0124   -1.6256    0.6138 H   0  0  0  0  0  0  0  0  0  0  0  0
    5.2895    2.1706    1.2634 C   0  0  0  0  0  0  0  0  0  0  0  0
    3.2321    1.7056    0.7364 H   0  0  0  0  0  0  0  0  0  0  0  0
    6.5830    1.6447    1.4205 C   0  0  0  0  0  0  0  0  0  0  0  0
    7.8666   -0.0735    1.3242 H   0  0  0  0  0  0  0  0  0  0  0  0
    5.1088    3.2226    1.4495 H   0  0  0  0  0  0  0  0  0  0  0  0
   -2.9378    1.1793    1.5315 C   0  0  0  0  0  0  0  0  0  0  0  0
   -2.8622    0.7756    2.6722 O   0  0  0  0  0  0  0  0  0  0  0  0
   -4.0683    1.6837    0.9954 O   0  0  0  0  0  0  0  0  0  0  0  0
   -4.7498    1.6458    1.6881 H   0  0  0  0  0  0  0  0  0  0  0  0
    7.7456    2.5064    1.8423 C   0  0  0  0  0  0  0  0  0  0  0  0
    8.8642    2.0691    1.9796 O   0  0  0  0  0  0  0  0  0  0  0  0
    7.3831    3.7822    2.0385 O   0  0  0  0  0  0  0  0  0  0  0  0
    8.1734    4.2815    2.3098 H   0  0  0  0  0  0  0  0  0  0  0  0
  1  2  2  0  0  0  0
  1  6  1  0  0  0  0
  2  3  1  0  0  0  0
  3  4  2  0  0  0  0
  4  9  1  0  0  0  0
  5  4  1  0  0  0  0
  5 22  1  0  0  0  0
  6  5  2  0  0  0  0
  7  1  1  0  0  0  0
  8  6  1  0  0  0  0
 10 11  1  0  0  0  0
 11 12  1  0  0  0  0
 12 13  2  0  0  0  0
 12 14  1  0  0  0  0
 13 15  1  0  0  0  0
 14 17  2  0  0  0  0
 15 20  1  0  0  0  0
 15 19  2  0  0  0  0
 16 13  1  0  0  0  0
 17 19  1  0  0  0  0
 17 21  1  0  0  0  0
 18 14  1  0  0  0  0
 19 26  1  0  0  0  0
 22 23  2  0  0  0  0
 24 22  1  0  0  0  0
 24 25  1  0  0  0  0
 26 27  2  0  0  0  0
 26 28  1  0  0  0  0
 28 29  1  0  0  0  0
M  RAD  4   2   2   3   2  10   3  11   2
M  END
