Coordinates from ORCA-job 1g-Schema6-R11-K+-B3LYPG-6-31G_dp-scan-d49-09-n400
 OpenBabel08281819543D

 29 30  0  0  0  0  0  0  0  0999 V2000
   -0.6650    1.5472   -1.7439 C   0  0  0  0  0  0  0  0  0  0  0  0
    0.2932    0.5997   -1.7332 C   0  0  0  0  0  0  0  0  0  0  0  0
    1.0647   -0.0284   -0.8626 C   0  0  0  0  0  0  0  0  0  0  0  0
    0.6134    0.2157    0.4643 C   0  0  0  0  0  0  0  0  0  0  0  0
   -0.4499    1.0982    0.6686 C   0  0  0  0  0  0  0  0  0  0  0  0
   -1.0896    1.7462   -0.4045 C   0  0  0  0  0  0  0  0  0  0  0  0
   -1.1622    1.9904   -2.5991 H   0  0  0  0  0  0  0  0  0  0  0  0
   -1.9668    2.3631   -0.2315 H   0  0  0  0  0  0  0  0  0  0  0  0
    1.1211   -0.2325    1.3140 H   0  0  0  0  0  0  0  0  0  0  0  0
    2.0959   -1.0584   -1.1588 N   0  0  0  0  0  0  0  0  0  0  0  0
    3.1743   -1.0440   -0.6225 N   0  0  0  0  0  0  0  0  0  0  0  0
    3.8703   -0.0792    0.1185 C   0  0  0  0  0  0  0  0  0  0  0  0
    4.7344   -0.5668    1.1167 C   0  0  0  0  0  0  0  0  0  0  0  0
    3.8055    1.2937   -0.1962 C   0  0  0  0  0  0  0  0  0  0  0  0
    5.4688    0.3388    1.8671 C   0  0  0  0  0  0  0  0  0  0  0  0
    4.7961   -1.6351    1.2939 H   0  0  0  0  0  0  0  0  0  0  0  0
    4.5784    2.1811    0.5391 C   0  0  0  0  0  0  0  0  0  0  0  0
    3.1997    1.6478   -1.0224 H   0  0  0  0  0  0  0  0  0  0  0  0
    5.3962    1.7101    1.5798 C   0  0  0  0  0  0  0  0  0  0  0  0
    6.1241    0.0077    2.6652 H   0  0  0  0  0  0  0  0  0  0  0  0
    4.5629    3.2399    0.3081 H   0  0  0  0  0  0  0  0  0  0  0  0
   -0.8613    1.3308    2.0970 C   0  0  0  0  0  0  0  0  0  0  0  0
   -0.2853    0.8295    3.0351 O   0  0  0  0  0  0  0  0  0  0  0  0
   -1.9208    2.1483    2.1904 O   0  0  0  0  0  0  0  0  0  0  0  0
   -2.1372    2.2522    3.1337 H   0  0  0  0  0  0  0  0  0  0  0  0
    6.2430    2.6346    2.4051 C   0  0  0  0  0  0  0  0  0  0  0  0
    6.9526    2.2553    3.3090 O   0  0  0  0  0  0  0  0  0  0  0  0
    6.1182    3.9200    2.0258 O   0  0  0  0  0  0  0  0  0  0  0  0
    6.6978    4.4493    2.6004 H   0  0  0  0  0  0  0  0  0  0  0  0
  1  2  2  0  0  0  0
  1  6  1  0  0  0  0
  2  3  1  0  0  0  0
  3  4  2  0  0  0  0
  4  5  1  0  0  0  0
  4  9  1  0  0  0  0
  5 22  1  0  0  0  0
  6  8  1  0  0  0  0
  6  5  2  0  0  0  0
  7  1  1  0  0  0  0
 10  3  1  0  0  0  0
 10 11  2  0  0  0  0
 11 12  1  0  0  0  0
 12 13  1  0  0  0  0
 13 16  1  0  0  0  0
 13 15  2  0  0  0  0
 14 12  2  0  0  0  0
 14 17  1  0  0  0  0
 15 20  1  0  0  0  0
 17 19  2  0  0  0  0
 18 14  1  0  0  0  0
 19 15  1  0  0  0  0
 19 26  1  0  0  0  0
 21 17  1  0  0  0  0
 22 24  1  0  0  0  0
 22 23  2  0  0  0  0
 24 25  1  0  0  0  0
 26 27  2  0  0  0  0
 28 26  1  0  0  0  0
 28 29  1  0  0  0  0
M  RAD  1   2   2
M  END
