Coordinates from ORCA-job 1g-Schema6-R11-K+-B3LYPG-6-31G_dp-scan-d49-09-n400
 OpenBabel08281819543D

 29 29  0  0  0  0  0  0  0  0999 V2000
   -0.8640    2.0104   -1.7215 C   0  0  0  0  0  0  0  0  0  0  0  0
    0.3587    1.6349   -1.2218 C   0  0  0  0  0  0  0  0  0  0  0  0
    0.7681    1.2441   -0.1008 C   0  0  0  0  0  0  0  0  0  0  0  0
   -0.1252    1.1257    0.9676 C   0  0  0  0  0  0  0  0  0  0  0  0
   -1.4523    1.4778    0.6251 C   0  0  0  0  0  0  0  0  0  0  0  0
   -1.8059    1.9051   -0.6731 C   0  0  0  0  0  0  0  0  0  0  0  0
   -1.1175    2.3387   -2.7209 H   0  0  0  0  0  0  0  0  0  0  0  0
   -2.8390    2.1667   -0.8777 H   0  0  0  0  0  0  0  0  0  0  0  0
    0.1061    0.8046    1.9768 H   0  0  0  0  0  0  0  0  0  0  0  0
    3.2413   -2.3459   -0.4092 N   0  0  0  0  0  0  0  0  0  0  0  0
    3.8753   -1.5179   -0.0143 N   0  0  0  0  0  0  0  0  0  0  0  0
    4.6536   -0.4916    0.4739 C   0  0  0  0  0  0  0  0  0  0  0  0
    5.9819   -0.7847    0.8512 C   0  0  0  0  0  0  0  0  0  0  0  0
    4.0615    0.7843    0.5646 C   0  0  0  0  0  0  0  0  0  0  0  0
    6.7370    0.2657    1.3417 C   0  0  0  0  0  0  0  0  0  0  0  0
    6.3833   -1.7878    0.7583 H   0  0  0  0  0  0  0  0  0  0  0  0
    4.8541    1.8090    1.0621 C   0  0  0  0  0  0  0  0  0  0  0  0
    3.0253    0.9374    0.2579 H   0  0  0  0  0  0  0  0  0  0  0  0
    6.1798    1.5527    1.4474 C   0  0  0  0  0  0  0  0  0  0  0  0
    7.7651    0.1172    1.6529 H   0  0  0  0  0  0  0  0  0  0  0  0
    4.4482    2.8096    1.1550 H   0  0  0  0  0  0  0  0  0  0  0  0
   -2.4688    1.3729    1.7183 C   0  0  0  0  0  0  0  0  0  0  0  0
   -2.2138    1.0056    2.8460 O   0  0  0  0  0  0  0  0  0  0  0  0
   -3.7077    1.7288    1.3191 O   0  0  0  0  0  0  0  0  0  0  0  0
   -4.2905    1.6284    2.0909 H   0  0  0  0  0  0  0  0  0  0  0  0
    7.0739    2.6369    1.9940 C   0  0  0  0  0  0  0  0  0  0  0  0
    8.2157    2.4288    2.3321 O   0  0  0  0  0  0  0  0  0  0  0  0
    6.4513    3.8222    2.0509 O   0  0  0  0  0  0  0  0  0  0  0  0
    7.0770    4.4755    2.4104 H   0  0  0  0  0  0  0  0  0  0  0  0
  1  2  2  0  0  0  0
  1  6  1  0  0  0  0
  2  3  1  0  0  0  0
  3  4  2  0  0  0  0
  4  9  1  0  0  0  0
  5  4  1  0  0  0  0
  5 22  1  0  0  0  0
  6  5  2  0  0  0  0
  7  1  1  0  0  0  0
  8  6  1  0  0  0  0
 10 11  1  0  0  0  0
 11 12  1  0  0  0  0
 12 14  2  0  0  0  0
 12 13  1  0  0  0  0
 13 15  2  0  0  0  0
 14 17  1  0  0  0  0
 15 19  1  0  0  0  0
 15 20  1  0  0  0  0
 16 13  1  0  0  0  0
 17 21  1  0  0  0  0
 17 19  2  0  0  0  0
 18 14  1  0  0  0  0
 19 26  1  0  0  0  0
 22 23  2  0  0  0  0
 24 22  1  0  0  0  0
 24 25  1  0  0  0  0
 26 28  1  0  0  0  0
 26 27  2  0  0  0  0
 28 29  1  0  0  0  0
M  RAD  4   2   2   3   2  10   3  11   2
M  END
