Coordinates from ORCA-job 1g-Schema6-R11-K+-B3LYPG-6-31G_dp-scan-d49-09-n400
 OpenBabel08281819543D

 29 31  0  0  1  0  0  0  0  0999 V2000
    1.2171    2.1353    0.5760 C   0  0  0  0  0  0  0  0  0  0  0  0
    1.9505    1.0088    0.2454 C   0  0  0  0  0  0  0  0  0  0  0  0
    1.3091   -0.2558    0.1974 C   0  0  0  0  0  0  0  0  0  0  0  0
   -0.0664   -0.3474    0.4784 C   0  0  0  0  0  0  0  0  0  0  0  0
   -0.7857    0.7817    0.8698 C   0  0  0  0  0  0  0  0  0  0  0  0
   -0.1411    2.0208    0.9201 C   0  0  0  0  0  0  0  0  0  0  0  0
    1.6888    3.1122    0.5920 H   0  0  0  0  0  0  0  0  0  0  0  0
   -0.6944    2.9010    1.2278 H   0  0  0  0  0  0  0  0  0  0  0  0
   -0.5674   -1.3073    0.4000 H   0  0  0  0  0  0  0  0  0  0  0  0
    1.9173   -1.3921   -0.2420 N   0  0  0  0  0  0  0  0  0  0  0  0
    3.1324   -1.3227   -0.0139 N   0  0  0  0  0  0  0  0  0  0  0  0
    3.9092   -0.2771    0.2783 C   0  0  0  0  0  0  0  0  0  0  0  0
    5.0519   -0.4168    1.0831 C   0  0  0  0  0  0  0  0  0  0  0  0
    3.4250    1.0450   -0.2057 C   0  0  2  0  0  0  0  0  0  0  0  0
    5.7542    0.7185    1.4282 C   0  0  0  0  0  0  0  0  0  0  0  0
    5.3392   -1.4002    1.4379 H   0  0  0  0  0  0  0  0  0  0  0  0
    4.2787    2.2007    0.1859 C   0  0  0  0  0  0  0  0  0  0  0  0
    3.3813    1.0643   -1.3128 H   0  0  0  0  0  0  0  0  0  0  0  0
    5.3774    2.0291    0.9680 C   0  0  0  0  0  0  0  0  0  0  0  0
    6.6328    0.6550    2.0639 H   0  0  0  0  0  0  0  0  0  0  0  0
    4.0507    3.1767   -0.2295 H   0  0  0  0  0  0  0  0  0  0  0  0
   -2.2385    0.6041    1.1999 C   0  0  0  0  0  0  0  0  0  0  0  0
   -2.8039   -0.4635    1.1420 O   0  0  0  0  0  0  0  0  0  0  0  0
   -2.8214    1.7603    1.5623 O   0  0  0  0  0  0  0  0  0  0  0  0
   -3.7540    1.5687    1.7627 H   0  0  0  0  0  0  0  0  0  0  0  0
    6.2676    3.1686    1.3832 C   0  0  0  0  0  0  0  0  0  0  0  0
    7.2302    3.0143    2.0976 O   0  0  0  0  0  0  0  0  0  0  0  0
    5.8582    4.3420    0.8777 O   0  0  0  0  0  0  0  0  0  0  0  0
    6.4737    5.0312    1.1834 H   0  0  0  0  0  0  0  0  0  0  0  0
  1  7  1  0  0  0  0
  1  6  2  0  0  0  0
  2  1  1  0  0  0  0
  3  2  2  0  0  0  0
  3  4  1  0  0  0  0
  4  5  2  0  0  0  0
  5  6  1  0  0  0  0
  5 22  1  0  0  0  0
  6  8  1  0  0  0  0
  9  4  1  0  0  0  0
 10 11  1  0  0  0  0
 10  3  1  0  0  0  0
 11 12  1  0  0  0  0
 12 13  2  0  0  0  0
 13 15  1  0  0  0  0
 13 16  1  0  0  0  0
 14 18  1  6  0  0  0
 14 17  1  0  0  0  0
 14  2  1  0  0  0  0
 14 12  1  0  0  0  0
 15 20  1  0  0  0  0
 17 19  2  0  0  0  0
 19 26  1  0  0  0  0
 19 15  1  0  0  0  0
 21 17  1  0  0  0  0
 22 24  1  0  0  0  0
 23 22  2  0  0  0  0
 24 25  1  0  0  0  0
 26 27  2  0  0  0  0
 28 29  1  0  0  0  0
 28 26  1  0  0  0  0
M  RAD  3  10   2  11   2  15   2
M  END
