Coordinates from ORCA-job 1g-Schema6-R11-K+-B3LYPG-6-31G_dp-scan-d49-09-n400
 OpenBabel08281819543D

 29 29  0  0  0  0  0  0  0  0999 V2000
   -0.9058    1.9982   -1.7384 C   0  0  0  0  0  0  0  0  0  0  0  0
    0.3284    1.6568   -1.2430 C   0  0  0  0  0  0  0  0  0  0  0  0
    0.7527    1.2723   -0.1253 C   0  0  0  0  0  0  0  0  0  0  0  0
   -0.1344    1.1229    0.9445 C   0  0  0  0  0  0  0  0  0  0  0  0
   -1.4724    1.4366    0.6069 C   0  0  0  0  0  0  0  0  0  0  0  0
   -1.8417    1.8596   -0.6884 C   0  0  0  0  0  0  0  0  0  0  0  0
   -1.1713    2.3240   -2.7355 H   0  0  0  0  0  0  0  0  0  0  0  0
   -2.8826    2.0915   -0.8892 H   0  0  0  0  0  0  0  0  0  0  0  0
    0.1086    0.8050    1.9520 H   0  0  0  0  0  0  0  0  0  0  0  0
    3.0980   -2.2032   -0.3633 N   0  0  0  0  0  0  0  0  0  0  0  0
    3.7726   -1.4040    0.0236 N   0  0  0  0  0  0  0  0  0  0  0  0
    4.6008   -0.4129    0.5023 C   0  0  0  0  0  0  0  0  0  0  0  0
    5.9077   -0.7721    0.8970 C   0  0  0  0  0  0  0  0  0  0  0  0
    4.0801    0.8954    0.5658 C   0  0  0  0  0  0  0  0  0  0  0  0
    6.7162    0.2430    1.3768 C   0  0  0  0  0  0  0  0  0  0  0  0
    6.2535   -1.7973    0.8246 H   0  0  0  0  0  0  0  0  0  0  0  0
    4.9244    1.8829    1.0537 C   0  0  0  0  0  0  0  0  0  0  0  0
    3.0572    1.1006    0.2476 H   0  0  0  0  0  0  0  0  0  0  0  0
    6.2305    1.5605    1.4556 C   0  0  0  0  0  0  0  0  0  0  0  0
    7.7318    0.0430    1.6999 H   0  0  0  0  0  0  0  0  0  0  0  0
    4.5742    2.9059    1.1262 H   0  0  0  0  0  0  0  0  0  0  0  0
   -2.4826    1.2955    1.7018 C   0  0  0  0  0  0  0  0  0  0  0  0
   -2.2143    0.9273    2.8261 O   0  0  0  0  0  0  0  0  0  0  0  0
   -3.7320    1.6195    1.3083 O   0  0  0  0  0  0  0  0  0  0  0  0
   -4.3097    1.4974    2.0809 H   0  0  0  0  0  0  0  0  0  0  0  0
    7.1787    2.6031    1.9921 C   0  0  0  0  0  0  0  0  0  0  0  0
    8.3044    2.3382    2.3443 O   0  0  0  0  0  0  0  0  0  0  0  0
    6.6211    3.8211    2.0271 O   0  0  0  0  0  0  0  0  0  0  0  0
    7.2784    4.4445    2.3830 H   0  0  0  0  0  0  0  0  0  0  0  0
  1  2  2  0  0  0  0
  1  6  1  0  0  0  0
  2  3  1  0  0  0  0
  3  4  2  0  0  0  0
  4  9  1  0  0  0  0
  5  4  1  0  0  0  0
  5 22  1  0  0  0  0
  6  5  2  0  0  0  0
  7  1  1  0  0  0  0
  8  6  1  0  0  0  0
 10 11  1  0  0  0  0
 11 12  1  0  0  0  0
 12 14  2  0  0  0  0
 12 13  1  0  0  0  0
 13 15  2  0  0  0  0
 14 17  1  0  0  0  0
 15 19  1  0  0  0  0
 15 20  1  0  0  0  0
 16 13  1  0  0  0  0
 17 21  1  0  0  0  0
 17 19  2  0  0  0  0
 18 14  1  0  0  0  0
 19 26  1  0  0  0  0
 22 23  2  0  0  0  0
 24 22  1  0  0  0  0
 24 25  1  0  0  0  0
 26 28  1  0  0  0  0
 26 27  2  0  0  0  0
 28 29  1  0  0  0  0
M  RAD  4   2   2   3   2  10   3  11   2
M  END
