Coordinates from ORCA-job 1g-Schema6-R11-K+-B3LYPG-6-31G_dp-scan-d49-09-n400
 OpenBabel08281819543D

 29 29  0  0  0  0  0  0  0  0999 V2000
   -0.8827    2.0149   -1.7221 C   0  0  0  0  0  0  0  0  0  0  0  0
    0.3410    1.6361   -1.2267 C   0  0  0  0  0  0  0  0  0  0  0  0
    0.7504    1.2450   -0.1059 C   0  0  0  0  0  0  0  0  0  0  0  0
   -0.1388    1.1292    0.9656 C   0  0  0  0  0  0  0  0  0  0  0  0
   -1.4660    1.4850    0.6265 C   0  0  0  0  0  0  0  0  0  0  0  0
   -1.8219    1.9128   -0.6710 C   0  0  0  0  0  0  0  0  0  0  0  0
   -1.1385    2.3434   -2.7208 H   0  0  0  0  0  0  0  0  0  0  0  0
   -2.8549    2.1770   -0.8727 H   0  0  0  0  0  0  0  0  0  0  0  0
    0.0945    0.8078    1.9741 H   0  0  0  0  0  0  0  0  0  0  0  0
    3.2847   -2.3695   -0.4242 N   0  0  0  0  0  0  0  0  0  0  0  0
    3.9083   -1.5354   -0.0253 N   0  0  0  0  0  0  0  0  0  0  0  0
    4.6749   -0.5029    0.4677 C   0  0  0  0  0  0  0  0  0  0  0  0
    6.0018   -0.7890    0.8556 C   0  0  0  0  0  0  0  0  0  0  0  0
    4.0769    0.7704    0.5521 C   0  0  0  0  0  0  0  0  0  0  0  0
    6.7493    0.2650    1.3502 C   0  0  0  0  0  0  0  0  0  0  0  0
    6.4081   -1.7906    0.7670 H   0  0  0  0  0  0  0  0  0  0  0  0
    4.8621    1.7989    1.0538 C   0  0  0  0  0  0  0  0  0  0  0  0
    3.0435    0.9257    0.2395 H   0  0  0  0  0  0  0  0  0  0  0  0
    6.1859    1.5497    1.4495 C   0  0  0  0  0  0  0  0  0  0  0  0
    7.7757    0.1209    1.6691 H   0  0  0  0  0  0  0  0  0  0  0  0
    4.4508    2.7979    1.1419 H   0  0  0  0  0  0  0  0  0  0  0  0
   -2.4796    1.3837    1.7225 C   0  0  0  0  0  0  0  0  0  0  0  0
   -2.2226    1.0168    2.8499 O   0  0  0  0  0  0  0  0  0  0  0  0
   -3.7187    1.7430    1.3267 O   0  0  0  0  0  0  0  0  0  0  0  0
   -4.2993    1.6449    2.1004 H   0  0  0  0  0  0  0  0  0  0  0  0
    7.0712    2.6388    2.0006 C   0  0  0  0  0  0  0  0  0  0  0  0
    8.2112    2.4363    2.3479 O   0  0  0  0  0  0  0  0  0  0  0  0
    6.4427    3.8213    2.0511 O   0  0  0  0  0  0  0  0  0  0  0  0
    7.0626    4.4782    2.4141 H   0  0  0  0  0  0  0  0  0  0  0  0
  1  2  2  0  0  0  0
  1  6  1  0  0  0  0
  2  3  1  0  0  0  0
  3  4  2  0  0  0  0
  4  9  1  0  0  0  0
  5  4  1  0  0  0  0
  5 22  1  0  0  0  0
  6  5  2  0  0  0  0
  7  1  1  0  0  0  0
  8  6  1  0  0  0  0
 10 11  1  0  0  0  0
 11 12  1  0  0  0  0
 12 14  2  0  0  0  0
 12 13  1  0  0  0  0
 13 15  2  0  0  0  0
 14 17  1  0  0  0  0
 15 19  1  0  0  0  0
 15 20  1  0  0  0  0
 16 13  1  0  0  0  0
 17 21  1  0  0  0  0
 17 19  2  0  0  0  0
 18 14  1  0  0  0  0
 19 26  1  0  0  0  0
 22 23  2  0  0  0  0
 24 22  1  0  0  0  0
 24 25  1  0  0  0  0
 26 28  1  0  0  0  0
 26 27  2  0  0  0  0
 28 29  1  0  0  0  0
M  RAD  4   2   2   3   2  10   3  11   2
M  END
