Coordinates from ORCA-job 1g-Schema6-R11-K+-B3LYPG-6-31G_dp-scan-d49-09-n400
 OpenBabel08281819543D

 29 29  0  0  0  0  0  0  0  0999 V2000
   -0.9379    1.9821   -1.7509 C   0  0  0  0  0  0  0  0  0  0  0  0
    0.3113    1.7005   -1.2555 C   0  0  0  0  0  0  0  0  0  0  0  0
    0.7532    1.3240   -0.1417 C   0  0  0  0  0  0  0  0  0  0  0  0
   -0.1272    1.1184    0.9246 C   0  0  0  0  0  0  0  0  0  0  0  0
   -1.4791    1.3649    0.5866 C   0  0  0  0  0  0  0  0  0  0  0  0
   -1.8673    1.7829   -0.7047 C   0  0  0  0  0  0  0  0  0  0  0  0
   -1.2177    2.3061   -2.7446 H   0  0  0  0  0  0  0  0  0  0  0  0
   -2.9184    1.9637   -0.9053 H   0  0  0  0  0  0  0  0  0  0  0  0
    0.1293    0.8036    1.9297 H   0  0  0  0  0  0  0  0  0  0  0  0
    2.8382   -1.9345   -0.2928 N   0  0  0  0  0  0  0  0  0  0  0  0
    3.5852   -1.1958    0.0806 N   0  0  0  0  0  0  0  0  0  0  0  0
    4.4981   -0.2729    0.5420 C   0  0  0  0  0  0  0  0  0  0  0  0
    5.7578   -0.7388    0.9758 C   0  0  0  0  0  0  0  0  0  0  0  0
    4.1027    1.0795    0.5497 C   0  0  0  0  0  0  0  0  0  0  0  0
    6.6498    0.2129    1.4378 C   0  0  0  0  0  0  0  0  0  0  0  0
    6.0066   -1.7939    0.9458 H   0  0  0  0  0  0  0  0  0  0  0  0
    5.0265    2.0009    1.0222 C   0  0  0  0  0  0  0  0  0  0  0  0
    3.1087    1.3591    0.2031 H   0  0  0  0  0  0  0  0  0  0  0  0
    6.2891    1.5719    1.4624 C   0  0  0  0  0  0  0  0  0  0  0  0
    7.6363   -0.0696    1.7885 H   0  0  0  0  0  0  0  0  0  0  0  0
    4.7732    3.0543    1.0529 H   0  0  0  0  0  0  0  0  0  0  0  0
   -2.4831    1.1572    1.6770 C   0  0  0  0  0  0  0  0  0  0  0  0
   -2.1981    0.7842    2.7957 O   0  0  0  0  0  0  0  0  0  0  0  0
   -3.7459    1.4269    1.2863 O   0  0  0  0  0  0  0  0  0  0  0  0
   -4.3183    1.2646    2.0553 H   0  0  0  0  0  0  0  0  0  0  0  0
    7.3213    2.5395    1.9841 C   0  0  0  0  0  0  0  0  0  0  0  0
    8.4124    2.1836    2.3642 O   0  0  0  0  0  0  0  0  0  0  0  0
    6.8793    3.8044    1.9701 O   0  0  0  0  0  0  0  0  0  0  0  0
    7.5865    4.3754    2.3183 H   0  0  0  0  0  0  0  0  0  0  0  0
  1  2  2  0  0  0  0
  1  6  1  0  0  0  0
  2  3  1  0  0  0  0
  3  4  2  0  0  0  0
  4  9  1  0  0  0  0
  5  4  1  0  0  0  0
  5 22  1  0  0  0  0
  6  5  2  0  0  0  0
  7  1  1  0  0  0  0
  8  6  1  0  0  0  0
 10 11  1  0  0  0  0
 11 12  1  0  0  0  0
 12 14  2  0  0  0  0
 12 13  1  0  0  0  0
 13 15  2  0  0  0  0
 14 17  1  0  0  0  0
 15 19  1  0  0  0  0
 15 20  1  0  0  0  0
 16 13  1  0  0  0  0
 17 21  1  0  0  0  0
 17 19  2  0  0  0  0
 18 14  1  0  0  0  0
 19 26  1  0  0  0  0
 22 23  2  0  0  0  0
 24 22  1  0  0  0  0
 24 25  1  0  0  0  0
 26 27  2  0  0  0  0
 28 26  1  0  0  0  0
 28 29  1  0  0  0  0
M  RAD  4   2   2   3   2  10   3  11   2
M  END
