Coordinates from ORCA-job 1g-Schema6-R11-K+-B3LYPG-6-31G_dp-scan-d49-09-n400
 OpenBabel08281819543D

 29 29  0  0  0  0  0  0  0  0999 V2000
   -0.8655    1.7737   -1.7240 C   0  0  0  0  0  0  0  0  0  0  0  0
    0.3312    1.4698   -1.1213 C   0  0  0  0  0  0  0  0  0  0  0  0
    0.6630    1.1241    0.0396 C   0  0  0  0  0  0  0  0  0  0  0  0
   -0.3023    0.9904    1.0416 C   0  0  0  0  0  0  0  0  0  0  0  0
   -1.6120    1.2710    0.5853 C   0  0  0  0  0  0  0  0  0  0  0  0
   -1.8804    1.6492   -0.7485 C   0  0  0  0  0  0  0  0  0  0  0  0
   -1.0551    2.0664   -2.7483 H   0  0  0  0  0  0  0  0  0  0  0  0
   -2.9050    1.8571   -1.0394 H   0  0  0  0  0  0  0  0  0  0  0  0
   -0.1371    0.7047    2.0740 H   0  0  0  0  0  0  0  0  0  0  0  0
    2.6114   -1.5715   -0.1712 N   0  0  0  0  0  0  0  0  0  0  0  0
    3.4606   -0.9355    0.1711 N   0  0  0  0  0  0  0  0  0  0  0  0
    4.4658   -0.0937    0.5947 C   0  0  0  0  0  0  0  0  0  0  0  0
    5.7402   -0.6413    0.8490 C   0  0  0  0  0  0  0  0  0  0  0  0
    4.1400    1.2689    0.7460 C   0  0  0  0  0  0  0  0  0  0  0  0
    6.7236    0.2347    1.2756 C   0  0  0  0  0  0  0  0  0  0  0  0
    5.9324   -1.6999    0.7137 H   0  0  0  0  0  0  0  0  0  0  0  0
    5.1534    2.1131    1.1763 C   0  0  0  0  0  0  0  0  0  0  0  0
    3.1332    1.6157    0.5284 H   0  0  0  0  0  0  0  0  0  0  0  0
    6.4348    1.6008    1.4388 C   0  0  0  0  0  0  0  0  0  0  0  0
    7.7277   -0.1136    1.4910 H   0  0  0  0  0  0  0  0  0  0  0  0
    4.9574    3.1703    1.3114 H   0  0  0  0  0  0  0  0  0  0  0  0
   -2.7074    1.1450    1.5984 C   0  0  0  0  0  0  0  0  0  0  0  0
   -2.5258    0.8164    2.7515 O   0  0  0  0  0  0  0  0  0  0  0  0
   -3.9241    1.4351    1.0931 O   0  0  0  0  0  0  0  0  0  0  0  0
   -4.5629    1.3266    1.8182 H   0  0  0  0  0  0  0  0  0  0  0  0
    7.5641    2.4832    1.9068 C   0  0  0  0  0  0  0  0  0  0  0  0
    8.6717    2.0557    2.1347 O   0  0  0  0  0  0  0  0  0  0  0  0
    7.1856    3.7627    2.0324 O   0  0  0  0  0  0  0  0  0  0  0  0
    7.9541    4.2762    2.3381 H   0  0  0  0  0  0  0  0  0  0  0  0
  1  2  2  0  0  0  0
  1  6  1  0  0  0  0
  2  3  1  0  0  0  0
  3  4  2  0  0  0  0
  4  9  1  0  0  0  0
  5  4  1  0  0  0  0
  5 22  1  0  0  0  0
  6  5  2  0  0  0  0
  7  1  1  0  0  0  0
  8  6  1  0  0  0  0
 10 11  1  0  0  0  0
 11 12  1  0  0  0  0
 12 14  2  0  0  0  0
 12 13  1  0  0  0  0
 13 15  2  0  0  0  0
 14 17  1  0  0  0  0
 15 19  1  0  0  0  0
 15 20  1  0  0  0  0
 16 13  1  0  0  0  0
 17 21  1  0  0  0  0
 17 19  2  0  0  0  0
 18 14  1  0  0  0  0
 19 26  1  0  0  0  0
 22 23  2  0  0  0  0
 24 22  1  0  0  0  0
 24 25  1  0  0  0  0
 26 28  1  0  0  0  0
 26 27  2  0  0  0  0
 28 29  1  0  0  0  0
M  RAD  4   2   2   3   2  10   3  11   2
M  END
