Coordinates from ORCA-job 1g-Schema6-R11-K+-B3LYPG-6-31G_dp-scan-d49-09-n400
 OpenBabel08281819543D

 29 29  0  0  0  0  0  0  0  0999 V2000
   -0.9355    1.9869   -1.7529 C   0  0  0  0  0  0  0  0  0  0  0  0
    0.3109    1.6674   -1.2742 C   0  0  0  0  0  0  0  0  0  0  0  0
    0.7587    1.2915   -0.1625 C   0  0  0  0  0  0  0  0  0  0  0  0
   -0.1108    1.1304    0.9201 C   0  0  0  0  0  0  0  0  0  0  0  0
   -1.4586    1.4208    0.6014 C   0  0  0  0  0  0  0  0  0  0  0  0
   -1.8537    1.8350   -0.6891 C   0  0  0  0  0  0  0  0  0  0  0  0
   -1.2204    2.3066   -2.7466 H   0  0  0  0  0  0  0  0  0  0  0  0
   -2.9011    2.0496   -0.8752 H   0  0  0  0  0  0  0  0  0  0  0  0
    0.1517    0.8190    1.9247 H   0  0  0  0  0  0  0  0  0  0  0  0
    3.0380   -2.1341   -0.3816 N   0  0  0  0  0  0  0  0  0  0  0  0
    3.7271   -1.3506    0.0116 N   0  0  0  0  0  0  0  0  0  0  0  0
    4.5720   -0.3774    0.4978 C   0  0  0  0  0  0  0  0  0  0  0  0
    5.8562   -0.7686    0.9342 C   0  0  0  0  0  0  0  0  0  0  0  0
    4.0895    0.9462    0.5264 C   0  0  0  0  0  0  0  0  0  0  0  0
    6.6815    0.2298    1.4208 C   0  0  0  0  0  0  0  0  0  0  0  0
    6.1729   -1.8046    0.8873 H   0  0  0  0  0  0  0  0  0  0  0  0
    4.9487    1.9161    1.0231 C   0  0  0  0  0  0  0  0  0  0  0  0
    3.0822    1.1738    0.1776 H   0  0  0  0  0  0  0  0  0  0  0  0
    6.2333    1.5621    1.4663 C   0  0  0  0  0  0  0  0  0  0  0  0
    7.6815    0.0051    1.7746 H   0  0  0  0  0  0  0  0  0  0  0  0
    4.6273    2.9500    1.0704 H   0  0  0  0  0  0  0  0  0  0  0  0
   -2.4504    1.2648    1.7110 C   0  0  0  0  0  0  0  0  0  0  0  0
   -2.1599    0.9004    2.8312 O   0  0  0  0  0  0  0  0  0  0  0  0
   -3.7101    1.5699    1.3362 O   0  0  0  0  0  0  0  0  0  0  0  0
   -4.2745    1.4392    2.1171 H   0  0  0  0  0  0  0  0  0  0  0  0
    7.1967    2.5850    2.0134 C   0  0  0  0  0  0  0  0  0  0  0  0
    8.3054    2.2936    2.3974 O   0  0  0  0  0  0  0  0  0  0  0  0
    6.6740    3.8188    2.0164 O   0  0  0  0  0  0  0  0  0  0  0  0
    7.3400    4.4285    2.3800 H   0  0  0  0  0  0  0  0  0  0  0  0
  1  2  2  0  0  0  0
  1  6  1  0  0  0  0
  2  3  1  0  0  0  0
  3  4  2  0  0  0  0
  4  9  1  0  0  0  0
  5  4  1  0  0  0  0
  5 22  1  0  0  0  0
  6  5  2  0  0  0  0
  7  1  1  0  0  0  0
  8  6  1  0  0  0  0
 10 11  1  0  0  0  0
 11 12  1  0  0  0  0
 12 14  2  0  0  0  0
 12 13  1  0  0  0  0
 13 15  2  0  0  0  0
 14 17  1  0  0  0  0
 15 19  1  0  0  0  0
 15 20  1  0  0  0  0
 16 13  1  0  0  0  0
 17 21  1  0  0  0  0
 17 19  2  0  0  0  0
 18 14  1  0  0  0  0
 19 26  1  0  0  0  0
 22 23  2  0  0  0  0
 24 22  1  0  0  0  0
 24 25  1  0  0  0  0
 26 28  1  0  0  0  0
 26 27  2  0  0  0  0
 28 29  1  0  0  0  0
M  RAD  4   2   2   3   2  10   3  11   2
M  END
