Coordinates from ORCA-job 1g-Schema6-R11-K+-B3LYPG-6-31G_dp-scan-d49-09-n400
 OpenBabel08281819543D

 29 29  0  0  0  0  0  0  0  0999 V2000
   -1.1147    1.2853   -1.9659 C   0  0  0  0  0  0  0  0  0  0  0  0
    0.0310    0.6111   -1.6512 C   0  0  0  0  0  0  0  0  0  0  0  0
    0.6041    0.2187   -0.5969 C   0  0  0  0  0  0  0  0  0  0  0  0
   -0.0299    0.4796    0.6255 C   0  0  0  0  0  0  0  0  0  0  0  0
   -1.2503    1.1838    0.5061 C   0  0  0  0  0  0  0  0  0  0  0  0
   -1.7750    1.5684   -0.7452 C   0  0  0  0  0  0  0  0  0  0  0  0
   -1.4978    1.5698   -2.9368 H   0  0  0  0  0  0  0  0  0  0  0  0
   -2.7210    2.0985   -0.7835 H   0  0  0  0  0  0  0  0  0  0  0  0
    0.3287    0.1878    1.6070 H   0  0  0  0  0  0  0  0  0  0  0  0
    2.4449   -1.3420   -0.5400 N   0  0  0  0  0  0  0  0  0  0  0  0
    3.3396   -0.8338   -0.0860 N   0  0  0  0  0  0  0  0  0  0  0  0
    4.2901   -0.0007    0.4715 C   0  0  0  0  0  0  0  0  0  0  0  0
    5.5524   -0.5386    0.7841 C   0  0  0  0  0  0  0  0  0  0  0  0
    3.9345    1.3440    0.6930 C   0  0  0  0  0  0  0  0  0  0  0  0
    6.4885    0.3175    1.3428 C   0  0  0  0  0  0  0  0  0  0  0  0
    5.7734   -1.5823    0.5910 H   0  0  0  0  0  0  0  0  0  0  0  0
    4.8955    2.1732    1.2539 C   0  0  0  0  0  0  0  0  0  0  0  0
    2.9448    1.7009    0.4311 H   0  0  0  0  0  0  0  0  0  0  0  0
    6.1640    1.6632    1.5769 C   0  0  0  0  0  0  0  0  0  0  0  0
    7.4798   -0.0326    1.6078 H   0  0  0  0  0  0  0  0  0  0  0  0
    4.6690    3.2152    1.4455 H   0  0  0  0  0  0  0  0  0  0  0  0
   -1.9584    1.5027    1.7873 C   0  0  0  0  0  0  0  0  0  0  0  0
   -1.5155    1.2305    2.8826 O   0  0  0  0  0  0  0  0  0  0  0  0
   -3.1358    2.1273    1.5914 O   0  0  0  0  0  0  0  0  0  0  0  0
   -3.5215    2.2919    2.4690 H   0  0  0  0  0  0  0  0  0  0  0  0
    7.2359    2.5276    2.1876 C   0  0  0  0  0  0  0  0  0  0  0  0
    8.3337    2.1065    2.4694 O   0  0  0  0  0  0  0  0  0  0  0  0
    6.8235    3.7911    2.3719 O   0  0  0  0  0  0  0  0  0  0  0  0
    7.5592    4.2908    2.7671 H   0  0  0  0  0  0  0  0  0  0  0  0
  1  2  2  0  0  0  0
  1  6  1  0  0  0  0
  2  3  1  0  0  0  0
  3  4  2  0  0  0  0
  4  9  1  0  0  0  0
  5  4  1  0  0  0  0
  5 22  1  0  0  0  0
  6  5  2  0  0  0  0
  7  1  1  0  0  0  0
  8  6  1  0  0  0  0
 10 11  1  0  0  0  0
 11 12  1  0  0  0  0
 12 14  2  0  0  0  0
 12 13  1  0  0  0  0
 13 15  2  0  0  0  0
 14 17  1  0  0  0  0
 15 19  1  0  0  0  0
 15 20  1  0  0  0  0
 16 13  1  0  0  0  0
 17 21  1  0  0  0  0
 17 19  2  0  0  0  0
 18 14  1  0  0  0  0
 19 26  1  0  0  0  0
 22 23  2  0  0  0  0
 24 22  1  0  0  0  0
 24 25  1  0  0  0  0
 26 28  1  0  0  0  0
 26 27  2  0  0  0  0
 28 29  1  0  0  0  0
M  RAD  4   2   2   3   2  10   3  11   2
M  END
