Coordinates from ORCA-job 1g-Schema6-R11-K+-B3LYPG-6-31G_dp-scan-d49-09-n400
 OpenBabel08281819543D

 29 29  0  0  0  0  0  0  0  0999 V2000
   -0.9359    1.9853   -1.7495 C   0  0  0  0  0  0  0  0  0  0  0  0
    0.3125    1.7007   -1.2537 C   0  0  0  0  0  0  0  0  0  0  0  0
    0.7530    1.3225   -0.1399 C   0  0  0  0  0  0  0  0  0  0  0  0
   -0.1283    1.1178    0.9257 C   0  0  0  0  0  0  0  0  0  0  0  0
   -1.4795    1.3676    0.5873 C   0  0  0  0  0  0  0  0  0  0  0  0
   -1.8662    1.7874   -0.7039 C   0  0  0  0  0  0  0  0  0  0  0  0
   -1.2146    2.3107   -2.7430 H   0  0  0  0  0  0  0  0  0  0  0  0
   -2.9168    1.9706   -0.9048 H   0  0  0  0  0  0  0  0  0  0  0  0
    0.1271    0.8018    1.9307 H   0  0  0  0  0  0  0  0  0  0  0  0
    2.8475   -1.9467   -0.2917 N   0  0  0  0  0  0  0  0  0  0  0  0
    3.5918   -1.2049    0.0812 N   0  0  0  0  0  0  0  0  0  0  0  0
    4.5014   -0.2784    0.5418 C   0  0  0  0  0  0  0  0  0  0  0  0
    5.7631   -0.7403    0.9740 C   0  0  0  0  0  0  0  0  0  0  0  0
    4.1015    1.0733    0.5509 C   0  0  0  0  0  0  0  0  0  0  0  0
    6.6525    0.2139    1.4355 C   0  0  0  0  0  0  0  0  0  0  0  0
    6.0154   -1.7945    0.9431 H   0  0  0  0  0  0  0  0  0  0  0  0
    5.0232    1.9971    1.0230 C   0  0  0  0  0  0  0  0  0  0  0  0
    3.1061    1.3517    0.2056 H   0  0  0  0  0  0  0  0  0  0  0  0
    6.2876    1.5717    1.4614 C   0  0  0  0  0  0  0  0  0  0  0  0
    7.6403   -0.0657    1.7849 H   0  0  0  0  0  0  0  0  0  0  0  0
    4.7669    3.0497    1.0547 H   0  0  0  0  0  0  0  0  0  0  0  0
   -2.4844    1.1616    1.6771 C   0  0  0  0  0  0  0  0  0  0  0  0
   -2.2010    0.7855    2.7952 O   0  0  0  0  0  0  0  0  0  0  0  0
   -3.7466    1.4322    1.2854 O   0  0  0  0  0  0  0  0  0  0  0  0
   -4.3199    1.2694    2.0537 H   0  0  0  0  0  0  0  0  0  0  0  0
    7.3174    2.5421    1.9825 C   0  0  0  0  0  0  0  0  0  0  0  0
    8.4099    2.1893    2.3614 O   0  0  0  0  0  0  0  0  0  0  0  0
    6.8713    3.8055    1.9702 O   0  0  0  0  0  0  0  0  0  0  0  0
    7.5771    4.3785    2.3183 H   0  0  0  0  0  0  0  0  0  0  0  0
  1  2  2  0  0  0  0
  1  6  1  0  0  0  0
  2  3  1  0  0  0  0
  3  4  2  0  0  0  0
  4  9  1  0  0  0  0
  5  4  1  0  0  0  0
  5 22  1  0  0  0  0
  6  5  2  0  0  0  0
  7  1  1  0  0  0  0
  8  6  1  0  0  0  0
 10 11  1  0  0  0  0
 11 12  1  0  0  0  0
 12 14  2  0  0  0  0
 12 13  1  0  0  0  0
 13 15  2  0  0  0  0
 14 17  1  0  0  0  0
 15 19  1  0  0  0  0
 15 20  1  0  0  0  0
 16 13  1  0  0  0  0
 17 21  1  0  0  0  0
 17 19  2  0  0  0  0
 18 14  1  0  0  0  0
 19 26  1  0  0  0  0
 22 23  2  0  0  0  0
 24 22  1  0  0  0  0
 24 25  1  0  0  0  0
 26 27  2  0  0  0  0
 28 26  1  0  0  0  0
 28 29  1  0  0  0  0
M  RAD  4   2   2   3   2  10   3  11   2
M  END
