Coordinates from ORCA-job 1g-Schema6-R11-K+-B3LYPG-6-31G_dp-scan-d49-09-n400
 OpenBabel08281819543D

 29 29  0  0  0  0  0  0  0  0999 V2000
   -0.8006    2.0659   -1.6736 C   0  0  0  0  0  0  0  0  0  0  0  0
    0.3821    1.5779   -1.1721 C   0  0  0  0  0  0  0  0  0  0  0  0
    0.7382    1.1407   -0.0506 C   0  0  0  0  0  0  0  0  0  0  0  0
   -0.1682    1.0838    1.0100 C   0  0  0  0  0  0  0  0  0  0  0  0
   -1.4559    1.5563    0.6606 C   0  0  0  0  0  0  0  0  0  0  0  0
   -1.7580    2.0299   -0.6349 C   0  0  0  0  0  0  0  0  0  0  0  0
   -1.0164    2.4270   -2.6706 H   0  0  0  0  0  0  0  0  0  0  0  0
   -2.7627    2.3814   -0.8446 H   0  0  0  0  0  0  0  0  0  0  0  0
    0.0245    0.7290    2.0158 H   0  0  0  0  0  0  0  0  0  0  0  0
    3.6174   -2.6551   -0.4658 N   0  0  0  0  0  0  0  0  0  0  0  0
    4.1498   -1.7614   -0.0638 N   0  0  0  0  0  0  0  0  0  0  0  0
    4.8042   -0.6562    0.4329 C   0  0  0  0  0  0  0  0  0  0  0  0
    6.1626   -0.7992    0.7912 C   0  0  0  0  0  0  0  0  0  0  0  0
    4.0718    0.5419    0.5510 C   0  0  0  0  0  0  0  0  0  0  0  0
    6.8000    0.3229    1.2902 C   0  0  0  0  0  0  0  0  0  0  0  0
    6.6749   -1.7483    0.6777 H   0  0  0  0  0  0  0  0  0  0  0  0
    4.7498    1.6426    1.0560 C   0  0  0  0  0  0  0  0  0  0  0  0
    3.0223    0.6014    0.2613 H   0  0  0  0  0  0  0  0  0  0  0  0
    6.1009    1.5358    1.4226 C   0  0  0  0  0  0  0  0  0  0  0  0
    7.8423    0.2882    1.5873 H   0  0  0  0  0  0  0  0  0  0  0  0
    4.2313    2.5879    1.1680 H   0  0  0  0  0  0  0  0  0  0  0  0
   -2.4877    1.5283    1.7436 C   0  0  0  0  0  0  0  0  0  0  0  0
   -2.2757    1.1321    2.8704 O   0  0  0  0  0  0  0  0  0  0  0  0
   -3.6880    1.9936    1.3377 O   0  0  0  0  0  0  0  0  0  0  0  0
   -4.2840    1.9360    2.1038 H   0  0  0  0  0  0  0  0  0  0  0  0
    6.8726    2.7072    1.9754 C   0  0  0  0  0  0  0  0  0  0  0  0
    8.0359    2.6265    2.2938 O   0  0  0  0  0  0  0  0  0  0  0  0
    6.1186    3.8117    2.0611 O   0  0  0  0  0  0  0  0  0  0  0  0
    6.6704    4.5275    2.4226 H   0  0  0  0  0  0  0  0  0  0  0  0
  1  2  2  0  0  0  0
  1  6  1  0  0  0  0
  2  3  1  0  0  0  0
  3  4  2  0  0  0  0
  4  9  1  0  0  0  0
  5  4  1  0  0  0  0
  5 22  1  0  0  0  0
  6  5  2  0  0  0  0
  7  1  1  0  0  0  0
  8  6  1  0  0  0  0
 10 11  1  0  0  0  0
 11 12  1  0  0  0  0
 12 14  2  0  0  0  0
 12 13  1  0  0  0  0
 13 15  2  0  0  0  0
 14 17  1  0  0  0  0
 15 19  1  0  0  0  0
 15 20  1  0  0  0  0
 16 13  1  0  0  0  0
 17 21  1  0  0  0  0
 17 19  2  0  0  0  0
 18 14  1  0  0  0  0
 19 26  1  0  0  0  0
 22 23  2  0  0  0  0
 24 22  1  0  0  0  0
 24 25  1  0  0  0  0
 26 28  1  0  0  0  0
 26 27  2  0  0  0  0
 28 29  1  0  0  0  0
M  RAD  4   2   2   3   2  10   3  11   2
M  END
