Coordinates from ORCA-job 1g-Schema6-R11-K+-B3LYPG-6-31G_dp-scan-d49-09-n400
 OpenBabel08281819543D

 29 31  0  0  1  0  0  0  0  0999 V2000
    1.2337    2.1306    0.5636 C   0  0  0  0  0  0  0  0  0  0  0  0
    1.9615    1.0071    0.2131 C   0  0  0  0  0  0  0  0  0  0  0  0
    1.3206   -0.2592    0.1649 C   0  0  0  0  0  0  0  0  0  0  0  0
   -0.0519   -0.3466    0.4626 C   0  0  0  0  0  0  0  0  0  0  0  0
   -0.7652    0.7792    0.8764 C   0  0  0  0  0  0  0  0  0  0  0  0
   -0.1197    2.0166    0.9274 C   0  0  0  0  0  0  0  0  0  0  0  0
    1.7083    3.1062    0.5786 H   0  0  0  0  0  0  0  0  0  0  0  0
   -0.6667    2.8954    1.2501 H   0  0  0  0  0  0  0  0  0  0  0  0
   -0.5577   -1.3038    0.3809 H   0  0  0  0  0  0  0  0  0  0  0  0
    1.9123   -1.3901   -0.2970 N   0  0  0  0  0  0  0  0  0  0  0  0
    3.1143   -1.2974   -0.0437 N   0  0  0  0  0  0  0  0  0  0  0  0
    3.9009   -0.2725    0.2590 C   0  0  0  0  0  0  0  0  0  0  0  0
    5.0111   -0.4099    1.1124 C   0  0  0  0  0  0  0  0  0  0  0  0
    3.4340    1.0485   -0.2506 C   0  0  2  0  0  0  0  0  0  0  0  0
    5.7074    0.7246    1.4653 C   0  0  0  0  0  0  0  0  0  0  0  0
    5.2765   -1.3896    1.4931 H   0  0  0  0  0  0  0  0  0  0  0  0
    4.2895    2.2009    0.1480 C   0  0  0  0  0  0  0  0  0  0  0  0
    3.3896    1.0606   -1.3562 H   0  0  0  0  0  0  0  0  0  0  0  0
    5.3575    2.0317    0.9710 C   0  0  0  0  0  0  0  0  0  0  0  0
    6.5621    0.6648    2.1332 H   0  0  0  0  0  0  0  0  0  0  0  0
    4.0878    3.1711   -0.2938 H   0  0  0  0  0  0  0  0  0  0  0  0
   -2.2129    0.5981    1.2263 C   0  0  0  0  0  0  0  0  0  0  0  0
   -2.7786   -0.4694    1.1673 O   0  0  0  0  0  0  0  0  0  0  0  0
   -2.7905    1.7504    1.6084 O   0  0  0  0  0  0  0  0  0  0  0  0
   -3.7200    1.5566    1.8208 H   0  0  0  0  0  0  0  0  0  0  0  0
    6.2451    3.1692    1.3966 C   0  0  0  0  0  0  0  0  0  0  0  0
    7.1822    3.0178    2.1448 O   0  0  0  0  0  0  0  0  0  0  0  0
    5.8642    4.3384    0.8599 O   0  0  0  0  0  0  0  0  0  0  0  0
    6.4770    5.0260    1.1745 H   0  0  0  0  0  0  0  0  0  0  0  0
  1  7  1  0  0  0  0
  1  6  2  0  0  0  0
  2  1  1  0  0  0  0
  3  2  2  0  0  0  0
  3  4  1  0  0  0  0
  4  5  2  0  0  0  0
  5  6  1  0  0  0  0
  5 22  1  0  0  0  0
  6  8  1  0  0  0  0
  9  4  1  0  0  0  0
 10 11  1  0  0  0  0
 10  3  1  0  0  0  0
 11 12  1  0  0  0  0
 12 13  2  0  0  0  0
 13 15  1  0  0  0  0
 13 16  1  0  0  0  0
 14 18  1  6  0  0  0
 14 17  1  0  0  0  0
 14  2  1  0  0  0  0
 14 12  1  0  0  0  0
 15 20  1  0  0  0  0
 17 19  2  0  0  0  0
 19 26  1  0  0  0  0
 19 15  1  0  0  0  0
 21 17  1  0  0  0  0
 22 24  1  0  0  0  0
 23 22  2  0  0  0  0
 24 25  1  0  0  0  0
 26 27  2  0  0  0  0
 28 29  1  0  0  0  0
 28 26  1  0  0  0  0
M  RAD  3  10   2  11   2  15   2
M  END
