Coordinates from ORCA-job 1g-Schema6-R11-K+-B3LYPG-6-31G_dp-scan-d49-09-n400
 OpenBabel08281819543D

 29 29  0  0  0  0  0  0  0  0999 V2000
   -0.9212    1.4165   -1.8924 C   0  0  0  0  0  0  0  0  0  0  0  0
    0.1878    0.6614   -1.6620 C   0  0  0  0  0  0  0  0  0  0  0  0
    0.7931    0.1584   -0.6634 C   0  0  0  0  0  0  0  0  0  0  0  0
    0.1947    0.3668    0.5899 C   0  0  0  0  0  0  0  0  0  0  0  0
   -0.9887    1.1343    0.5676 C   0  0  0  0  0  0  0  0  0  0  0  0
   -1.5317    1.6370   -0.6320 C   0  0  0  0  0  0  0  0  0  0  0  0
   -1.3143    1.7928   -2.8276 H   0  0  0  0  0  0  0  0  0  0  0  0
   -2.4514    2.2129   -0.6031 H   0  0  0  0  0  0  0  0  0  0  0  0
    0.5744   -0.0176    1.5315 H   0  0  0  0  0  0  0  0  0  0  0  0
    2.2663   -1.2481   -0.7293 N   0  0  0  0  0  0  0  0  0  0  0  0
    3.2231   -0.8728   -0.2343 N   0  0  0  0  0  0  0  0  0  0  0  0
    4.1175   -0.0044    0.3707 C   0  0  0  0  0  0  0  0  0  0  0  0
    5.2739   -0.5604    0.9465 C   0  0  0  0  0  0  0  0  0  0  0  0
    3.8494    1.3784    0.3678 C   0  0  0  0  0  0  0  0  0  0  0  0
    6.1766    0.3001    1.5529 C   0  0  0  0  0  0  0  0  0  0  0  0
    5.4397   -1.6317    0.9135 H   0  0  0  0  0  0  0  0  0  0  0  0
    4.7752    2.2164    0.9725 C   0  0  0  0  0  0  0  0  0  0  0  0
    2.9503    1.7652   -0.0961 H   0  0  0  0  0  0  0  0  0  0  0  0
    5.9310    1.6810    1.5654 C   0  0  0  0  0  0  0  0  0  0  0  0
    7.0820   -0.0726    2.0185 H   0  0  0  0  0  0  0  0  0  0  0  0
    4.6094    3.2874    0.9905 H   0  0  0  0  0  0  0  0  0  0  0  0
   -1.6404    1.3870    1.8952 C   0  0  0  0  0  0  0  0  0  0  0  0
   -1.1760    1.0051    2.9468 O   0  0  0  0  0  0  0  0  0  0  0  0
   -2.7861    2.0835    1.7844 O   0  0  0  0  0  0  0  0  0  0  0  0
   -3.1427    2.2005    2.6820 H   0  0  0  0  0  0  0  0  0  0  0  0
    6.9582    2.5541    2.2339 C   0  0  0  0  0  0  0  0  0  0  0  0
    7.9593    2.1136    2.7501 O   0  0  0  0  0  0  0  0  0  0  0  0
    6.6292    3.8553    2.1852 O   0  0  0  0  0  0  0  0  0  0  0  0
    7.3343    4.3552    2.6323 H   0  0  0  0  0  0  0  0  0  0  0  0
  1  2  2  0  0  0  0
  1  6  1  0  0  0  0
  2  3  1  0  0  0  0
  3  4  2  0  0  0  0
  4  9  1  0  0  0  0
  5  4  1  0  0  0  0
  5 22  1  0  0  0  0
  6  8  1  0  0  0  0
  6  5  2  0  0  0  0
  7  1  1  0  0  0  0
 10 11  1  0  0  0  0
 11 12  1  0  0  0  0
 12 13  1  0  0  0  0
 13 15  2  0  0  0  0
 14 12  2  0  0  0  0
 14 17  1  0  0  0  0
 15 19  1  0  0  0  0
 15 20  1  0  0  0  0
 16 13  1  0  0  0  0
 17 21  1  0  0  0  0
 17 19  2  0  0  0  0
 18 14  1  0  0  0  0
 19 26  1  0  0  0  0
 22 23  2  0  0  0  0
 24 22  1  0  0  0  0
 24 25  1  0  0  0  0
 26 27  2  0  0  0  0
 28 26  1  0  0  0  0
 28 29  1  0  0  0  0
M  RAD  4   2   2   3   2  10   3  11   2
M  END
