Coordinates from ORCA-job 1g-Schema6-R11-K+-B3LYPG-6-31G_dp-scan-d49-09-n400
 OpenBabel08281819543D

 29 30  0  0  0  0  0  0  0  0999 V2000
   -0.7882    1.5108   -1.8176 C   0  0  0  0  0  0  0  0  0  0  0  0
    0.2638    0.6716   -1.6642 C   0  0  0  0  0  0  0  0  0  0  0  0
    0.9175    0.0992   -0.7118 C   0  0  0  0  0  0  0  0  0  0  0  0
    0.3490    0.2967    0.5626 C   0  0  0  0  0  0  0  0  0  0  0  0
   -0.7905    1.1173    0.6240 C   0  0  0  0  0  0  0  0  0  0  0  0
   -1.3508    1.7002   -0.5284 C   0  0  0  0  0  0  0  0  0  0  0  0
   -1.2016    1.9337   -2.7243 H   0  0  0  0  0  0  0  0  0  0  0  0
   -2.2545    2.2971   -0.4503 H   0  0  0  0  0  0  0  0  0  0  0  0
    0.7635   -0.1337    1.4697 H   0  0  0  0  0  0  0  0  0  0  0  0
    2.1714   -1.1394   -0.8982 N   0  0  0  0  0  0  0  0  0  0  0  0
    3.2251   -0.9766   -0.4078 N   0  0  0  0  0  0  0  0  0  0  0  0
    4.0345   -0.0489    0.2531 C   0  0  0  0  0  0  0  0  0  0  0  0
    5.0790   -0.5753    1.0325 C   0  0  0  0  0  0  0  0  0  0  0  0
    3.8419    1.3363    0.0889 C   0  0  0  0  0  0  0  0  0  0  0  0
    5.9134    0.3065    1.7039 C   0  0  0  0  0  0  0  0  0  0  0  0
    5.2074   -1.6497    1.1062 H   0  0  0  0  0  0  0  0  0  0  0  0
    4.7034    2.1997    0.7503 C   0  0  0  0  0  0  0  0  0  0  0  0
    3.0566    1.7164   -0.5528 H   0  0  0  0  0  0  0  0  0  0  0  0
    5.7297    1.6891    1.5630 C   0  0  0  0  0  0  0  0  0  0  0  0
    6.7227   -0.0513    2.3307 H   0  0  0  0  0  0  0  0  0  0  0  0
    4.5910    3.2722    0.6400 H   0  0  0  0  0  0  0  0  0  0  0  0
   -1.3763    1.3426    1.9893 C   0  0  0  0  0  0  0  0  0  0  0  0
   -0.8869    0.8904    2.9996 O   0  0  0  0  0  0  0  0  0  0  0  0
   -2.4879    2.0960    1.9503 O   0  0  0  0  0  0  0  0  0  0  0  0
   -2.8099    2.1943    2.8633 H   0  0  0  0  0  0  0  0  0  0  0  0
    6.6807    2.5892    2.3007 C   0  0  0  0  0  0  0  0  0  0  0  0
    7.5704    2.1739    3.0073 O   0  0  0  0  0  0  0  0  0  0  0  0
    6.4224    3.8914    2.0859 O   0  0  0  0  0  0  0  0  0  0  0  0
    7.0755    4.4058    2.5913 H   0  0  0  0  0  0  0  0  0  0  0  0
  1  2  2  0  0  0  0
  1  6  1  0  0  0  0
  2  3  1  0  0  0  0
  3  4  2  0  0  0  0
  4  5  1  0  0  0  0
  4  9  1  0  0  0  0
  5 22  1  0  0  0  0
  6  8  1  0  0  0  0
  6  5  2  0  0  0  0
  7  1  1  0  0  0  0
 10  3  1  0  0  0  0
 10 11  2  0  0  0  0
 11 12  1  0  0  0  0
 12 13  1  0  0  0  0
 13 16  1  0  0  0  0
 13 15  2  0  0  0  0
 14 12  2  0  0  0  0
 14 17  1  0  0  0  0
 15 20  1  0  0  0  0
 17 19  2  0  0  0  0
 18 14  1  0  0  0  0
 19 15  1  0  0  0  0
 19 26  1  0  0  0  0
 21 17  1  0  0  0  0
 22 23  2  0  0  0  0
 24 22  1  0  0  0  0
 24 25  1  0  0  0  0
 26 27  2  0  0  0  0
 28 26  1  0  0  0  0
 28 29  1  0  0  0  0
M  RAD  1   2   2
M  END
