Coordinates from ORCA-job 1g-Schema6-R11-K+-B3LYPG-6-31G_dp-scan-d49-09-n400
 OpenBabel08281819543D

 29 32  0  0  1  0  0  0  0  0999 V2000
    1.1226    2.2246    0.2733 C   0  0  0  0  0  0  0  0  0  0  0  0
    1.9046    1.1200   -0.0034 C   0  0  0  0  0  0  0  0  0  0  0  0
    1.3253   -0.2081    0.0536 C   0  0  1  0  0  0  0  0  0  0  0  0
   -0.0100   -0.3639    0.5088 C   0  0  0  0  0  0  0  0  0  0  0  0
   -0.7479    0.7557    0.8613 C   0  0  0  0  0  0  0  0  0  0  0  0
   -0.1989    2.0447    0.7079 C   0  0  0  0  0  0  0  0  0  0  0  0
    1.5366    3.2260    0.2273 H   0  0  0  0  0  0  0  0  0  0  0  0
   -0.8037    2.9077    0.9630 H   0  0  0  0  0  0  0  0  0  0  0  0
   -0.4712   -1.3459    0.5403 H   0  0  0  0  0  0  0  0  0  0  0  0
    1.9781   -1.2129   -0.7329 N   0  0  0  0  0  0  0  0  0  0  0  0
    2.7476   -1.0376    0.2792 N   0  0  1  0  0  0  0  0  0  0  0  0
    3.8351   -0.2509    0.4162 C   0  0  2  0  0  0  0  0  0  0  0  0
    4.9773   -0.4336    1.2056 C   0  0  0  0  0  0  0  0  0  0  0  0
    3.4311    1.0744   -0.1829 C   0  0  2  0  0  0  0  0  0  0  0  0
    5.7699    0.6689    1.4321 C   0  0  0  0  0  0  0  0  0  0  0  0
    5.2356   -1.4149    1.5878 H   0  0  0  0  0  0  0  0  0  0  0  0
    4.2681    2.2163    0.2723 C   0  0  0  0  0  0  0  0  0  0  0  0
    3.5913    0.9490   -1.2820 H   0  0  0  0  0  0  0  0  0  0  0  0
    5.3984    1.9943    0.9928 C   0  0  0  0  0  0  0  0  0  0  0  0
    6.7044    0.5783    1.9766 H   0  0  0  0  0  0  0  0  0  0  0  0
    3.9879    3.2237   -0.0164 H   0  0  0  0  0  0  0  0  0  0  0  0
   -2.1548    0.5310    1.3417 C   0  0  0  0  0  0  0  0  0  0  0  0
   -2.6431   -0.5689    1.4575 O   0  0  0  0  0  0  0  0  0  0  0  0
   -2.7823    1.6847    1.6243 O   0  0  0  0  0  0  0  0  0  0  0  0
   -3.6802    1.4667    1.9297 H   0  0  0  0  0  0  0  0  0  0  0  0
    6.3176    3.1104    1.4038 C   0  0  0  0  0  0  0  0  0  0  0  0
    7.3338    2.9245    2.0323 O   0  0  0  0  0  0  0  0  0  0  0  0
    5.8782    4.3123    0.9942 O   0  0  0  0  0  0  0  0  0  0  0  0
    6.5211    4.9787    1.2932 H   0  0  0  0  0  0  0  0  0  0  0  0
  1  6  1  0  0  0  0
  2  3  1  0  0  0  0
  2  1  2  0  0  0  0
  3 10  1  6  0  0  0
  3 11  1  0  0  0  0
  3  4  1  0  0  0  0
  4  9  1  0  0  0  0
  4  5  2  0  0  0  0
  5 22  1  0  0  0  0
  6  5  1  0  0  0  0
  6  8  1  0  0  0  0
  7  1  1  0  0  0  0
 11 10  1  6  0  0  0
 11 12  1  0  0  0  0
 12 13  1  1  0  0  0
 13 15  2  0  0  0  0
 13 16  1  0  0  0  0
 14 18  1  6  0  0  0
 14  2  1  0  0  0  0
 14 17  1  0  0  0  0
 14 12  1  0  0  0  0
 15 20  1  0  0  0  0
 17 19  2  0  0  0  0
 19 26  1  0  0  0  0
 19 15  1  0  0  0  0
 21 17  1  0  0  0  0
 22 23  2  0  0  0  0
 22 24  1  0  0  0  0
 24 25  1  0  0  0  0
 26 27  2  0  0  0  0
 28 29  1  0  0  0  0
 28 26  1  0  0  0  0
M  RAD  3   6   2  10   2  12   2
M  END
