Coordinates from ORCA-job 1g-Schema6-R11-K+-B3LYPG-6-31G_dp-scan-d49-09-n400
 OpenBabel08281819543D

 29 29  0  0  0  0  0  0  0  0999 V2000
   -0.9332    1.5993   -1.7425 C   0  0  0  0  0  0  0  0  0  0  0  0
    0.1922    1.0766   -1.1538 C   0  0  0  0  0  0  0  0  0  0  0  0
    0.4568    0.6510   -0.0009 C   0  0  0  0  0  0  0  0  0  0  0  0
   -0.5166    0.6535    1.0006 C   0  0  0  0  0  0  0  0  0  0  0  0
   -1.7559    1.1723    0.5574 C   0  0  0  0  0  0  0  0  0  0  0  0
   -1.9543    1.6264   -0.7650 C   0  0  0  0  0  0  0  0  0  0  0  0
   -1.0703    1.9452   -2.7586 H   0  0  0  0  0  0  0  0  0  0  0  0
   -2.9279    2.0138   -1.0469 H   0  0  0  0  0  0  0  0  0  0  0  0
   -0.4051    0.3073    2.0215 H   0  0  0  0  0  0  0  0  0  0  0  0
    2.5502   -1.3052   -0.1084 N   0  0  0  0  0  0  0  0  0  0  0  0
    3.4902   -0.7922    0.2149 N   0  0  0  0  0  0  0  0  0  0  0  0
    4.5352    0.0083    0.6263 C   0  0  0  0  0  0  0  0  0  0  0  0
    5.8112   -0.5616    0.7945 C   0  0  0  0  0  0  0  0  0  0  0  0
    4.2371    1.3669    0.8538 C   0  0  0  0  0  0  0  0  0  0  0  0
    6.8268    0.2837    1.2113 C   0  0  0  0  0  0  0  0  0  0  0  0
    5.9821   -1.6150    0.6031 H   0  0  0  0  0  0  0  0  0  0  0  0
    5.2792    2.1816    1.2711 C   0  0  0  0  0  0  0  0  0  0  0  0
    3.2287    1.7383    0.7017 H   0  0  0  0  0  0  0  0  0  0  0  0
    6.5650    1.6434    1.4483 C   0  0  0  0  0  0  0  0  0  0  0  0
    7.8354   -0.0849    1.3624 H   0  0  0  0  0  0  0  0  0  0  0  0
    5.1041    3.2336    1.4625 H   0  0  0  0  0  0  0  0  0  0  0  0
   -2.8567    1.2133    1.5724 C   0  0  0  0  0  0  0  0  0  0  0  0
   -2.7280    0.8488    2.7215 O   0  0  0  0  0  0  0  0  0  0  0  0
   -4.0107    1.7009    1.0723 O   0  0  0  0  0  0  0  0  0  0  0  0
   -4.6600    1.6872    1.7962 H   0  0  0  0  0  0  0  0  0  0  0  0
    7.7265    2.4915    1.8992 C   0  0  0  0  0  0  0  0  0  0  0  0
    8.8386    2.0436    2.0544 O   0  0  0  0  0  0  0  0  0  0  0  0
    7.3713    3.7690    2.0988 O   0  0  0  0  0  0  0  0  0  0  0  0
    8.1609    4.2589    2.3890 H   0  0  0  0  0  0  0  0  0  0  0  0
  1  2  2  0  0  0  0
  1  6  1  0  0  0  0
  2  3  1  0  0  0  0
  3  4  2  0  0  0  0
  4  9  1  0  0  0  0
  5  4  1  0  0  0  0
  5 22  1  0  0  0  0
  6  5  2  0  0  0  0
  7  1  1  0  0  0  0
  8  6  1  0  0  0  0
 10 11  1  0  0  0  0
 11 12  1  0  0  0  0
 12 13  2  0  0  0  0
 12 14  1  0  0  0  0
 13 15  1  0  0  0  0
 14 17  2  0  0  0  0
 15 20  1  0  0  0  0
 15 19  2  0  0  0  0
 16 13  1  0  0  0  0
 17 19  1  0  0  0  0
 17 21  1  0  0  0  0
 18 14  1  0  0  0  0
 19 26  1  0  0  0  0
 22 23  2  0  0  0  0
 24 22  1  0  0  0  0
 24 25  1  0  0  0  0
 26 27  2  0  0  0  0
 26 28  1  0  0  0  0
 28 29  1  0  0  0  0
M  RAD  4   2   2   3   2  10   3  11   2
M  END
