Coordinates from ORCA-job 1g-Schema6-R11-K+-B3LYPG-6-31G_dp-scan-d49-09-n400
 OpenBabel08281819543D

 29 29  0  0  0  0  0  0  0  0999 V2000
   -0.7870    2.0859   -1.6618 C   0  0  0  0  0  0  0  0  0  0  0  0
    0.3908    1.5804   -1.1652 C   0  0  0  0  0  0  0  0  0  0  0  0
    0.7407    1.1341   -0.0455 C   0  0  0  0  0  0  0  0  0  0  0  0
   -0.1634    1.0839    1.0169 C   0  0  0  0  0  0  0  0  0  0  0  0
   -1.4453    1.5749    0.6712 C   0  0  0  0  0  0  0  0  0  0  0  0
   -1.7431    2.0578   -0.6218 C   0  0  0  0  0  0  0  0  0  0  0  0
   -1.0000    2.4539   -2.6569 H   0  0  0  0  0  0  0  0  0  0  0  0
   -2.7437    2.4230   -0.8283 H   0  0  0  0  0  0  0  0  0  0  0  0
    0.0263    0.7221    2.0206 H   0  0  0  0  0  0  0  0  0  0  0  0
    3.6992   -2.7168   -0.4875 N   0  0  0  0  0  0  0  0  0  0  0  0
    4.2078   -1.8108   -0.0820 N   0  0  0  0  0  0  0  0  0  0  0  0
    4.8330   -0.6909    0.4191 C   0  0  0  0  0  0  0  0  0  0  0  0
    6.1900   -0.8049    0.7931 C   0  0  0  0  0  0  0  0  0  0  0  0
    4.0752    0.4926    0.5256 C   0  0  0  0  0  0  0  0  0  0  0  0
    6.7988    0.3311    1.2959 C   0  0  0  0  0  0  0  0  0  0  0  0
    6.7226   -1.7437    0.6881 H   0  0  0  0  0  0  0  0  0  0  0  0
    4.7249    1.6082    1.0350 C   0  0  0  0  0  0  0  0  0  0  0  0
    3.0279    0.5327    0.2252 H   0  0  0  0  0  0  0  0  0  0  0  0
    6.0738    1.5299    1.4169 C   0  0  0  0  0  0  0  0  0  0  0  0
    7.8382    0.3187    1.6046 H   0  0  0  0  0  0  0  0  0  0  0  0
    4.1857    2.5428    1.1385 H   0  0  0  0  0  0  0  0  0  0  0  0
   -2.4758    1.5557    1.7557 C   0  0  0  0  0  0  0  0  0  0  0  0
   -2.2676    1.1515    2.8804 O   0  0  0  0  0  0  0  0  0  0  0  0
   -3.6709    2.0373    1.3533 O   0  0  0  0  0  0  0  0  0  0  0  0
   -4.2666    1.9834    2.1199 H   0  0  0  0  0  0  0  0  0  0  0  0
    6.8154    2.7184    1.9745 C   0  0  0  0  0  0  0  0  0  0  0  0
    7.9763    2.6618    2.3065 O   0  0  0  0  0  0  0  0  0  0  0  0
    6.0381    3.8073    2.0495 O   0  0  0  0  0  0  0  0  0  0  0  0
    6.5711    4.5350    2.4156 H   0  0  0  0  0  0  0  0  0  0  0  0
  1  2  2  0  0  0  0
  1  6  1  0  0  0  0
  2  3  1  0  0  0  0
  3  4  2  0  0  0  0
  4  9  1  0  0  0  0
  5  4  1  0  0  0  0
  5 22  1  0  0  0  0
  6  5  2  0  0  0  0
  7  1  1  0  0  0  0
  8  6  1  0  0  0  0
 10 11  1  0  0  0  0
 11 12  1  0  0  0  0
 12 14  2  0  0  0  0
 12 13  1  0  0  0  0
 13 15  2  0  0  0  0
 14 17  1  0  0  0  0
 15 19  1  0  0  0  0
 15 20  1  0  0  0  0
 16 13  1  0  0  0  0
 17 21  1  0  0  0  0
 17 19  2  0  0  0  0
 18 14  1  0  0  0  0
 19 26  1  0  0  0  0
 22 23  2  0  0  0  0
 24 22  1  0  0  0  0
 24 25  1  0  0  0  0
 26 28  1  0  0  0  0
 26 27  2  0  0  0  0
 28 29  1  0  0  0  0
M  RAD  4   2   2   3   2  10   3  11   2
M  END
