Coordinates from ORCA-job 1g-Schema6-R11-K+-B3LYPG-6-31G_dp-scan-d49-09-n400
 OpenBabel08281819543D

 29 29  0  0  0  0  0  0  0  0999 V2000
   -1.0840    1.2734   -1.9649 C   0  0  0  0  0  0  0  0  0  0  0  0
    0.0633    0.5994   -1.6594 C   0  0  0  0  0  0  0  0  0  0  0  0
    0.6497    0.2072   -0.6110 C   0  0  0  0  0  0  0  0  0  0  0  0
    0.0266    0.4735    0.6163 C   0  0  0  0  0  0  0  0  0  0  0  0
   -1.1937    1.1790    0.5086 C   0  0  0  0  0  0  0  0  0  0  0  0
   -1.7313    1.5608   -0.7379 C   0  0  0  0  0  0  0  0  0  0  0  0
   -1.4756    1.5572   -2.9327 H   0  0  0  0  0  0  0  0  0  0  0  0
   -2.6763    2.0933   -0.7681 H   0  0  0  0  0  0  0  0  0  0  0  0
    0.3949    0.1820    1.5946 H   0  0  0  0  0  0  0  0  0  0  0  0
    2.3976   -1.3267   -0.5581 N   0  0  0  0  0  0  0  0  0  0  0  0
    3.2946   -0.8243   -0.0978 N   0  0  0  0  0  0  0  0  0  0  0  0
    4.2425    0.0082    0.4642 C   0  0  0  0  0  0  0  0  0  0  0  0
    5.5001   -0.5345    0.7871 C   0  0  0  0  0  0  0  0  0  0  0  0
    3.8952    1.3562    0.6802 C   0  0  0  0  0  0  0  0  0  0  0  0
    6.4382    0.3171    1.3495 C   0  0  0  0  0  0  0  0  0  0  0  0
    5.7162   -1.5800    0.5983 H   0  0  0  0  0  0  0  0  0  0  0  0
    4.8572    2.1816    1.2446 C   0  0  0  0  0  0  0  0  0  0  0  0
    2.9096    1.7188    0.4116 H   0  0  0  0  0  0  0  0  0  0  0  0
    6.1207    1.6653    1.5774 C   0  0  0  0  0  0  0  0  0  0  0  0
    7.4257   -0.0383    1.6218 H   0  0  0  0  0  0  0  0  0  0  0  0
    4.6360    3.2256    1.4317 H   0  0  0  0  0  0  0  0  0  0  0  0
   -1.8875    1.5020    1.7970 C   0  0  0  0  0  0  0  0  0  0  0  0
   -1.4316    1.2322    2.8874 O   0  0  0  0  0  0  0  0  0  0  0  0
   -3.0660    2.1270    1.6120 O   0  0  0  0  0  0  0  0  0  0  0  0
   -3.4428    2.2951    2.4927 H   0  0  0  0  0  0  0  0  0  0  0  0
    7.1937    2.5252    2.1920 C   0  0  0  0  0  0  0  0  0  0  0  0
    8.2872    2.0990    2.4827 O   0  0  0  0  0  0  0  0  0  0  0  0
    6.7879    3.7921    2.3694 O   0  0  0  0  0  0  0  0  0  0  0  0
    7.5245    4.2881    2.7676 H   0  0  0  0  0  0  0  0  0  0  0  0
  1  2  2  0  0  0  0
  1  6  1  0  0  0  0
  2  3  1  0  0  0  0
  3  4  2  0  0  0  0
  4  9  1  0  0  0  0
  5  4  1  0  0  0  0
  5 22  1  0  0  0  0
  6  5  2  0  0  0  0
  7  1  1  0  0  0  0
  8  6  1  0  0  0  0
 10 11  1  0  0  0  0
 11 12  1  0  0  0  0
 12 14  2  0  0  0  0
 12 13  1  0  0  0  0
 13 15  2  0  0  0  0
 14 17  1  0  0  0  0
 15 19  1  0  0  0  0
 15 20  1  0  0  0  0
 16 13  1  0  0  0  0
 17 21  1  0  0  0  0
 17 19  2  0  0  0  0
 18 14  1  0  0  0  0
 19 26  1  0  0  0  0
 22 23  2  0  0  0  0
 24 22  1  0  0  0  0
 24 25  1  0  0  0  0
 26 28  1  0  0  0  0
 26 27  2  0  0  0  0
 28 29  1  0  0  0  0
M  RAD  4   2   2   3   2  10   3  11   2
M  END
