Coordinates from ORCA-job 1g-Schema6-R11-K+-B3LYPG-6-31G_dp-scan-d49-09-n400
 OpenBabel08281819543D

 29 30  0  0  0  0  0  0  0  0999 V2000
   -0.4253    1.7094   -1.6347 C   0  0  0  0  0  0  0  0  0  0  0  0
    0.4426    0.6811   -1.6914 C   0  0  0  0  0  0  0  0  0  0  0  0
    1.1510   -0.0926   -0.8825 C   0  0  0  0  0  0  0  0  0  0  0  0
    0.6927    0.0755    0.4545 C   0  0  0  0  0  0  0  0  0  0  0  0
   -0.2847    1.0354    0.7294 C   0  0  0  0  0  0  0  0  0  0  0  0
   -0.8434    1.8355   -0.2843 C   0  0  0  0  0  0  0  0  0  0  0  0
   -0.8571    2.2761   -2.4516 H   0  0  0  0  0  0  0  0  0  0  0  0
   -1.6482    2.5299   -0.0597 H   0  0  0  0  0  0  0  0  0  0  0  0
    1.1168   -0.5122    1.2642 H   0  0  0  0  0  0  0  0  0  0  0  0
    2.0634   -1.1295   -1.2671 N   0  0  0  0  0  0  0  0  0  0  0  0
    3.1094   -1.0607   -0.6892 N   0  0  0  0  0  0  0  0  0  0  0  0
    3.7536   -0.0784    0.0659 C   0  0  0  0  0  0  0  0  0  0  0  0
    4.4568   -0.5102    1.2080 C   0  0  0  0  0  0  0  0  0  0  0  0
    3.8300    1.2560   -0.3856 C   0  0  0  0  0  0  0  0  0  0  0  0
    5.1537    0.4246    1.9562 C   0  0  0  0  0  0  0  0  0  0  0  0
    4.4252   -1.5563    1.4928 H   0  0  0  0  0  0  0  0  0  0  0  0
    4.5696    2.1682    0.3545 C   0  0  0  0  0  0  0  0  0  0  0  0
    3.3598    1.5547   -1.3153 H   0  0  0  0  0  0  0  0  0  0  0  0
    5.2169    1.7620    1.5323 C   0  0  0  0  0  0  0  0  0  0  0  0
    5.6804    0.1399    2.8602 H   0  0  0  0  0  0  0  0  0  0  0  0
    4.6592    3.1955    0.0211 H   0  0  0  0  0  0  0  0  0  0  0  0
   -0.7017    1.1700    2.1684 C   0  0  0  0  0  0  0  0  0  0  0  0
   -0.1984    0.5252    3.0595 O   0  0  0  0  0  0  0  0  0  0  0  0
   -1.6769    2.0770    2.3288 O   0  0  0  0  0  0  0  0  0  0  0  0
   -1.9034    2.1107    3.2747 H   0  0  0  0  0  0  0  0  0  0  0  0
    6.0215    2.7140    2.3667 C   0  0  0  0  0  0  0  0  0  0  0  0
    6.5816    2.3902    3.3896 O   0  0  0  0  0  0  0  0  0  0  0  0
    6.0427    3.9569    1.8503 O   0  0  0  0  0  0  0  0  0  0  0  0
    6.5846    4.5074    2.4416 H   0  0  0  0  0  0  0  0  0  0  0  0
  1  6  1  0  0  0  0
  2  1  2  0  0  0  0
  2  3  1  0  0  0  0
  3  4  2  0  0  0  0
  4  5  1  0  0  0  0
  4  9  1  0  0  0  0
  5 22  1  0  0  0  0
  6  8  1  0  0  0  0
  6  5  2  0  0  0  0
  7  1  1  0  0  0  0
 10  3  1  0  0  0  0
 10 11  1  0  0  0  0
 11 12  1  0  0  0  0
 12 13  1  0  0  0  0
 13 16  1  0  0  0  0
 13 15  2  0  0  0  0
 14 12  2  0  0  0  0
 14 17  1  0  0  0  0
 15 20  1  0  0  0  0
 17 19  2  0  0  0  0
 18 14  1  0  0  0  0
 19 15  1  0  0  0  0
 19 26  1  0  0  0  0
 21 17  1  0  0  0  0
 22 24  1  0  0  0  0
 22 23  2  0  0  0  0
 24 25  1  0  0  0  0
 26 27  2  0  0  0  0
 28 26  1  0  0  0  0
 28 29  1  0  0  0  0
M  RAD  3   2   2  10   2  11   2
M  END
