Coordinates from ORCA-job 1g-Schema6-R11-K+-B3LYPG-6-31G_dp-scan-d49-09-n400
 OpenBabel08281819543D

 29 31  0  0  1  0  0  0  0  0999 V2000
    1.2203    2.1344    0.5730 C   0  0  0  0  0  0  0  0  0  0  0  0
    1.9527    1.0088    0.2380 C   0  0  0  0  0  0  0  0  0  0  0  0
    1.3120   -0.2566    0.1898 C   0  0  0  0  0  0  0  0  0  0  0  0
   -0.0631   -0.3470    0.4744 C   0  0  0  0  0  0  0  0  0  0  0  0
   -0.7814    0.7810    0.8709 C   0  0  0  0  0  0  0  0  0  0  0  0
   -0.1369    2.0199    0.9214 C   0  0  0  0  0  0  0  0  0  0  0  0
    1.6925    3.1111    0.5889 H   0  0  0  0  0  0  0  0  0  0  0  0
   -0.6889    2.8997    1.2325 H   0  0  0  0  0  0  0  0  0  0  0  0
   -0.5650   -1.3065    0.3949 H   0  0  0  0  0  0  0  0  0  0  0  0
    1.9157   -1.3916   -0.2546 N   0  0  0  0  0  0  0  0  0  0  0  0
    3.1279   -1.3165   -0.0201 N   0  0  0  0  0  0  0  0  0  0  0  0
    3.9068   -0.2754    0.2746 C   0  0  0  0  0  0  0  0  0  0  0  0
    5.0422   -0.4152    1.0904 C   0  0  0  0  0  0  0  0  0  0  0  0
    3.4268    1.0463   -0.2152 C   0  0  2  0  0  0  0  0  0  0  0  0
    5.7439    0.7198    1.4367 C   0  0  0  0  0  0  0  0  0  0  0  0
    5.3243   -1.3978    1.4513 H   0  0  0  0  0  0  0  0  0  0  0  0
    4.2812    2.2012    0.1778 C   0  0  0  0  0  0  0  0  0  0  0  0
    3.3836    1.0641   -1.3221 H   0  0  0  0  0  0  0  0  0  0  0  0
    5.3734    2.0297    0.9686 C   0  0  0  0  0  0  0  0  0  0  0  0
    6.6175    0.6568    2.0795 H   0  0  0  0  0  0  0  0  0  0  0  0
    4.0589    3.1761   -0.2433 H   0  0  0  0  0  0  0  0  0  0  0  0
   -2.2331    0.6023    1.2053 C   0  0  0  0  0  0  0  0  0  0  0  0
   -2.7982   -0.4655    1.1476 O   0  0  0  0  0  0  0  0  0  0  0  0
   -2.8149    1.7573    1.5731 O   0  0  0  0  0  0  0  0  0  0  0  0
   -3.7466    1.5649    1.7767 H   0  0  0  0  0  0  0  0  0  0  0  0
    6.2637    3.1685    1.3857 C   0  0  0  0  0  0  0  0  0  0  0  0
    7.2205    3.0146    2.1079 O   0  0  0  0  0  0  0  0  0  0  0  0
    5.8608    4.3410    0.8730 O   0  0  0  0  0  0  0  0  0  0  0  0
    6.4759    5.0299    1.1807 H   0  0  0  0  0  0  0  0  0  0  0  0
  1  7  1  0  0  0  0
  1  6  2  0  0  0  0
  2  1  1  0  0  0  0
  3  2  2  0  0  0  0
  3  4  1  0  0  0  0
  4  5  2  0  0  0  0
  5  6  1  0  0  0  0
  5 22  1  0  0  0  0
  6  8  1  0  0  0  0
  9  4  1  0  0  0  0
 10 11  1  0  0  0  0
 10  3  1  0  0  0  0
 11 12  1  0  0  0  0
 12 13  2  0  0  0  0
 13 15  1  0  0  0  0
 13 16  1  0  0  0  0
 14 18  1  6  0  0  0
 14 17  1  0  0  0  0
 14  2  1  0  0  0  0
 14 12  1  0  0  0  0
 15 20  1  0  0  0  0
 17 19  2  0  0  0  0
 19 26  1  0  0  0  0
 19 15  1  0  0  0  0
 21 17  1  0  0  0  0
 22 24  1  0  0  0  0
 23 22  2  0  0  0  0
 24 25  1  0  0  0  0
 26 27  2  0  0  0  0
 28 29  1  0  0  0  0
 28 26  1  0  0  0  0
M  RAD  3  10   2  11   2  15   2
M  END
