Coordinates from ORCA-job 1g-Schema6-R11-K+-B3LYPG-6-31G_dp-scan-d49-09-n400
 OpenBabel08281819543D

 29 29  0  0  0  0  0  0  0  0999 V2000
   -1.0017    1.2998   -1.9493 C   0  0  0  0  0  0  0  0  0  0  0  0
    0.1239    0.5793   -1.6804 C   0  0  0  0  0  0  0  0  0  0  0  0
    0.7271    0.1447   -0.6542 C   0  0  0  0  0  0  0  0  0  0  0  0
    0.1344    0.4125    0.5887 C   0  0  0  0  0  0  0  0  0  0  0  0
   -1.0615    1.1611    0.5234 C   0  0  0  0  0  0  0  0  0  0  0  0
   -1.6130    1.5851   -0.7028 C   0  0  0  0  0  0  0  0  0  0  0  0
   -1.4018    1.6172   -2.9031 H   0  0  0  0  0  0  0  0  0  0  0  0
   -2.5391    2.1509   -0.7034 H   0  0  0  0  0  0  0  0  0  0  0  0
    0.5156    0.0869    1.5517 H   0  0  0  0  0  0  0  0  0  0  0  0
    2.3096   -1.3072   -0.6220 N   0  0  0  0  0  0  0  0  0  0  0  0
    3.2248   -0.8435   -0.1419 N   0  0  0  0  0  0  0  0  0  0  0  0
    4.1496    0.0063    0.4353 C   0  0  0  0  0  0  0  0  0  0  0  0
    5.3869   -0.5381    0.8266 C   0  0  0  0  0  0  0  0  0  0  0  0
    3.8170    1.3658    0.5971 C   0  0  0  0  0  0  0  0  0  0  0  0
    6.3147    0.3160    1.4025 C   0  0  0  0  0  0  0  0  0  0  0  0
    5.5950   -1.5916    0.6774 H   0  0  0  0  0  0  0  0  0  0  0  0
    4.7674    2.1957    1.1743 C   0  0  0  0  0  0  0  0  0  0  0  0
    2.8503    1.7374    0.2794 H   0  0  0  0  0  0  0  0  0  0  0  0
    6.0088    1.6744    1.5757 C   0  0  0  0  0  0  0  0  0  0  0  0
    7.2845   -0.0449    1.7260 H   0  0  0  0  0  0  0  0  0  0  0  0
    4.5542    3.2482    1.3192 H   0  0  0  0  0  0  0  0  0  0  0  0
   -1.7143    1.4824    1.8345 C   0  0  0  0  0  0  0  0  0  0  0  0
   -1.2401    1.1770    2.9071 O   0  0  0  0  0  0  0  0  0  0  0  0
   -2.8751    2.1475    1.6873 O   0  0  0  0  0  0  0  0  0  0  0  0
   -3.2287    2.3120    2.5785 H   0  0  0  0  0  0  0  0  0  0  0  0
    7.0671    2.5392    2.2072 C   0  0  0  0  0  0  0  0  0  0  0  0
    8.1414    2.1093    2.5582 O   0  0  0  0  0  0  0  0  0  0  0  0
    6.6739    3.8174    2.3259 O   0  0  0  0  0  0  0  0  0  0  0  0
    7.4017    4.3147    2.7383 H   0  0  0  0  0  0  0  0  0  0  0  0
  1  2  2  0  0  0  0
  1  6  1  0  0  0  0
  2  3  1  0  0  0  0
  3  4  2  0  0  0  0
  4  9  1  0  0  0  0
  5  4  1  0  0  0  0
  5 22  1  0  0  0  0
  6  5  2  0  0  0  0
  7  1  1  0  0  0  0
  8  6  1  0  0  0  0
 10 11  1  0  0  0  0
 11 12  1  0  0  0  0
 12 14  2  0  0  0  0
 12 13  1  0  0  0  0
 13 15  2  0  0  0  0
 14 17  1  0  0  0  0
 15 19  1  0  0  0  0
 15 20  1  0  0  0  0
 16 13  1  0  0  0  0
 17 21  1  0  0  0  0
 17 19  2  0  0  0  0
 18 14  1  0  0  0  0
 19 26  1  0  0  0  0
 22 23  2  0  0  0  0
 24 22  1  0  0  0  0
 24 25  1  0  0  0  0
 26 28  1  0  0  0  0
 26 27  2  0  0  0  0
 28 29  1  0  0  0  0
M  RAD  4   2   2   3   2  10   3  11   2
M  END
