Coordinates from ORCA-job 1g-Schema6-R11-K+-B3LYPG-6-31G_dp-scan-d49-09-n400
 OpenBabel08281819543D

 29 29  0  0  0  0  0  0  0  0999 V2000
   -0.8638    1.8644   -1.7172 C   0  0  0  0  0  0  0  0  0  0  0  0
    0.3399    1.5387   -1.1410 C   0  0  0  0  0  0  0  0  0  0  0  0
    0.6882    1.1527    0.0022 C   0  0  0  0  0  0  0  0  0  0  0  0
   -0.2647    0.9868    1.0113 C   0  0  0  0  0  0  0  0  0  0  0  0
   -1.5804    1.2831    0.5828 C   0  0  0  0  0  0  0  0  0  0  0  0
   -1.8661    1.7069   -0.7334 C   0  0  0  0  0  0  0  0  0  0  0  0
   -1.0662    2.1920   -2.7284 H   0  0  0  0  0  0  0  0  0  0  0  0
   -2.8943    1.9251   -1.0037 H   0  0  0  0  0  0  0  0  0  0  0  0
   -0.0866    0.6675    2.0317 H   0  0  0  0  0  0  0  0  0  0  0  0
    2.6492   -1.6677   -0.1565 N   0  0  0  0  0  0  0  0  0  0  0  0
    3.4753   -1.0005    0.1828 N   0  0  0  0  0  0  0  0  0  0  0  0
    4.4638   -0.1369    0.6021 C   0  0  0  0  0  0  0  0  0  0  0  0
    5.7366   -0.6669    0.9003 C   0  0  0  0  0  0  0  0  0  0  0  0
    4.1249    1.2272    0.7046 C   0  0  0  0  0  0  0  0  0  0  0  0
    6.7035    0.2296    1.3212 C   0  0  0  0  0  0  0  0  0  0  0  0
    5.9395   -1.7275    0.8016 H   0  0  0  0  0  0  0  0  0  0  0  0
    5.1226    2.0921    1.1310 C   0  0  0  0  0  0  0  0  0  0  0  0
    3.1190    1.5567    0.4553 H   0  0  0  0  0  0  0  0  0  0  0  0
    6.4013    1.5978    1.4367 C   0  0  0  0  0  0  0  0  0  0  0  0
    7.7051   -0.1043    1.5688 H   0  0  0  0  0  0  0  0  0  0  0  0
    4.9158    3.1513    1.2297 H   0  0  0  0  0  0  0  0  0  0  0  0
   -2.6620    1.1225    1.6054 C   0  0  0  0  0  0  0  0  0  0  0  0
   -2.4652    0.7542    2.7441 O   0  0  0  0  0  0  0  0  0  0  0  0
   -3.8854    1.4294    1.1269 O   0  0  0  0  0  0  0  0  0  0  0  0
   -4.5143    1.2956    1.8563 H   0  0  0  0  0  0  0  0  0  0  0  0
    7.5136    2.5024    1.9030 C   0  0  0  0  0  0  0  0  0  0  0  0
    8.6188    2.0904    2.1680 O   0  0  0  0  0  0  0  0  0  0  0  0
    7.1234    3.7821    1.9820 O   0  0  0  0  0  0  0  0  0  0  0  0
    7.8811    4.3104    2.2893 H   0  0  0  0  0  0  0  0  0  0  0  0
  1  2  2  0  0  0  0
  1  6  1  0  0  0  0
  2  3  1  0  0  0  0
  3  4  2  0  0  0  0
  4  9  1  0  0  0  0
  5  4  1  0  0  0  0
  5 22  1  0  0  0  0
  6  5  2  0  0  0  0
  7  1  1  0  0  0  0
  8  6  1  0  0  0  0
 10 11  1  0  0  0  0
 11 12  1  0  0  0  0
 12 14  2  0  0  0  0
 12 13  1  0  0  0  0
 13 15  2  0  0  0  0
 14 17  1  0  0  0  0
 15 19  1  0  0  0  0
 15 20  1  0  0  0  0
 16 13  1  0  0  0  0
 17 21  1  0  0  0  0
 17 19  2  0  0  0  0
 18 14  1  0  0  0  0
 19 26  1  0  0  0  0
 22 23  2  0  0  0  0
 24 22  1  0  0  0  0
 24 25  1  0  0  0  0
 26 28  1  0  0  0  0
 26 27  2  0  0  0  0
 28 29  1  0  0  0  0
M  RAD  4   2   2   3   2  10   3  11   2
M  END
