Coordinates from ORCA-job 1g-Schema6-R11-K+-B3LYPG-6-31G_dp-scan-d49-09-n400
 OpenBabel08281819543D

 29 29  0  0  0  0  0  0  0  0999 V2000
   -0.9942    1.4908   -1.8693 C   0  0  0  0  0  0  0  0  0  0  0  0
    0.1449    0.8855   -1.4119 C   0  0  0  0  0  0  0  0  0  0  0  0
    0.5530    0.4480   -0.3025 C   0  0  0  0  0  0  0  0  0  0  0  0
   -0.2923    0.5444    0.8099 C   0  0  0  0  0  0  0  0  0  0  0  0
   -1.5350    1.1567    0.5267 C   0  0  0  0  0  0  0  0  0  0  0  0
   -1.8729    1.6101   -0.7663 C   0  0  0  0  0  0  0  0  0  0  0  0
   -1.2340    1.8326   -2.8673 H   0  0  0  0  0  0  0  0  0  0  0  0
   -2.8429    2.0682   -0.9287 H   0  0  0  0  0  0  0  0  0  0  0  0
   -0.0767    0.1989    1.8148 H   0  0  0  0  0  0  0  0  0  0  0  0
    2.4489   -1.2800   -0.2460 N   0  0  0  0  0  0  0  0  0  0  0  0
    3.3832   -0.7822    0.1253 N   0  0  0  0  0  0  0  0  0  0  0  0
    4.4038    0.0248    0.5862 C   0  0  0  0  0  0  0  0  0  0  0  0
    5.6679   -0.5466    0.8219 C   0  0  0  0  0  0  0  0  0  0  0  0
    4.1034    1.3855    0.7928 C   0  0  0  0  0  0  0  0  0  0  0  0
    6.6663    0.2954    1.2853 C   0  0  0  0  0  0  0  0  0  0  0  0
    5.8433   -1.6017    0.6441 H   0  0  0  0  0  0  0  0  0  0  0  0
    5.1265    2.1987    1.2582 C   0  0  0  0  0  0  0  0  0  0  0  0
    3.1067    1.7628    0.5901 H   0  0  0  0  0  0  0  0  0  0  0  0
    6.3995    1.6569    1.5027 C   0  0  0  0  0  0  0  0  0  0  0  0
    7.6642   -0.0775    1.4882 H   0  0  0  0  0  0  0  0  0  0  0  0
    4.9463    3.2523    1.4357 H   0  0  0  0  0  0  0  0  0  0  0  0
   -2.4813    1.2991    1.6795 C   0  0  0  0  0  0  0  0  0  0  0  0
   -2.2211    0.9477    2.8101 O   0  0  0  0  0  0  0  0  0  0  0  0
   -3.6531    1.8637    1.3253 O   0  0  0  0  0  0  0  0  0  0  0  0
   -4.1993    1.9128    2.1285 H   0  0  0  0  0  0  0  0  0  0  0  0
    7.5396    2.5027    2.0073 C   0  0  0  0  0  0  0  0  0  0  0  0
    8.6414    2.0532    2.2208 O   0  0  0  0  0  0  0  0  0  0  0  0
    7.1799    3.7829    2.1843 O   0  0  0  0  0  0  0  0  0  0  0  0
    7.9566    4.2698    2.5114 H   0  0  0  0  0  0  0  0  0  0  0  0
  1  2  2  0  0  0  0
  1  6  1  0  0  0  0
  2  3  1  0  0  0  0
  3  4  2  0  0  0  0
  4  9  1  0  0  0  0
  5  4  1  0  0  0  0
  5 22  1  0  0  0  0
  6  5  2  0  0  0  0
  7  1  1  0  0  0  0
  8  6  1  0  0  0  0
 10 11  1  0  0  0  0
 11 12  1  0  0  0  0
 12 14  2  0  0  0  0
 12 13  1  0  0  0  0
 13 15  2  0  0  0  0
 14 17  1  0  0  0  0
 15 20  1  0  0  0  0
 15 19  1  0  0  0  0
 16 13  1  0  0  0  0
 17 21  1  0  0  0  0
 17 19  2  0  0  0  0
 18 14  1  0  0  0  0
 19 26  1  0  0  0  0
 22 23  2  0  0  0  0
 24 22  1  0  0  0  0
 24 25  1  0  0  0  0
 26 28  1  0  0  0  0
 26 27  2  0  0  0  0
 28 29  1  0  0  0  0
M  RAD  4   2   2   3   2  10   3  11   2
M  END
