Coordinates from ORCA-job 1g-Schema6-R11-K+-B3LYPG-6-31G_dp-scan-d49-09-n400
 OpenBabel08281819543D

 29 32  0  0  1  0  0  0  0  0999 V2000
    0.9196    2.4502    0.5280 C   0  0  0  0  0  0  0  0  0  0  0  0
    1.8991    1.4613    0.5773 C   0  0  2  0  0  0  0  0  0  0  0  0
    1.5314   -0.0022    0.6096 C   0  0  1  0  0  0  0  0  0  0  0  0
    0.1041   -0.3110    0.8702 C   0  0  0  0  0  0  0  0  0  0  0  0
   -0.8165    0.6915    0.7961 C   0  0  0  0  0  0  0  0  0  0  0  0
   -0.4101    2.0589    0.6192 C   0  0  0  0  0  0  0  0  0  0  0  0
    1.1794    3.5031    0.4902 H   0  0  0  0  0  0  0  0  0  0  0  0
   -1.1891    2.8143    0.6043 H   0  0  0  0  0  0  0  0  0  0  0  0
   -0.2007   -1.3467    0.9867 H   0  0  0  0  0  0  0  0  0  0  0  0
    1.9847   -0.8627   -0.5824 N   0  0  0  0  0  0  0  0  0  0  0  0
    2.4820   -0.7084    0.8083 N   0  0  0  0  0  0  0  0  0  0  0  0
    3.6736    0.0813    0.9018 C   0  0  0  0  0  0  0  0  0  0  0  0
    4.9825   -0.3457    1.0359 C   0  0  0  0  0  0  0  0  0  0  0  0
    3.3121    1.4550    0.7768 C   0  0  0  0  0  0  0  0  0  0  0  0
    5.9521    0.6573    1.0891 C   0  0  0  0  0  0  0  0  0  0  0  0
    5.2364   -1.3961    1.1205 H   0  0  0  0  0  0  0  0  0  0  0  0
    4.3052    2.4506    0.8369 C   0  0  0  0  0  0  0  0  0  0  0  0
    2.5524   -0.2195   -1.1599 H   0  0  0  0  0  0  0  0  0  0  0  0
    5.6222    2.0320    0.9947 C   0  0  0  0  0  0  0  0  0  0  0  0
    6.9999    0.4054    1.2186 H   0  0  0  0  0  0  0  0  0  0  0  0
    4.0679    3.5065    0.7727 H   0  0  0  0  0  0  0  0  0  0  0  0
   -2.2671    0.3145    0.9460 C   0  0  0  0  0  0  0  0  0  0  0  0
   -2.6387   -0.8232    1.1063 O   0  0  0  0  0  0  0  0  0  0  0  0
   -3.0708    1.3891    0.8826 O   0  0  0  0  0  0  0  0  0  0  0  0
   -3.9884    1.0826    0.9908 H   0  0  0  0  0  0  0  0  0  0  0  0
    6.7610    3.0084    1.0795 C   0  0  0  0  0  0  0  0  0  0  0  0
    7.9146    2.6707    1.2119 O   0  0  0  0  0  0  0  0  0  0  0  0
    6.3439    4.2839    0.9909 O   0  0  0  0  0  0  0  0  0  0  0  0
    7.1296    4.8541    1.0546 H   0  0  0  0  0  0  0  0  0  0  0  0
  1  6  2  0  0  0  0
  2  1  1  1  0  0  0
  2  3  1  0  0  0  0
  2 14  1  0  0  0  0
  3 10  1  6  0  0  0
  3 11  1  0  0  0  0
  3  4  1  0  0  0  0
  4  9  1  0  0  0  0
  5  4  2  0  0  0  0
  5 22  1  0  0  0  0
  6  5  1  0  0  0  0
  7  1  1  0  0  0  0
  8  6  1  0  0  0  0
 10 11  1  0  0  0  0
 11 12  1  0  0  0  0
 12 13  2  0  0  0  0
 13 15  1  0  0  0  0
 13 16  1  0  0  0  0
 14 17  2  0  0  0  0
 14 12  1  0  0  0  0
 15 20  1  0  0  0  0
 17 19  1  0  0  0  0
 18 10  1  0  0  0  0
 19 26  1  0  0  0  0
 19 15  2  0  0  0  0
 21 17  1  0  0  0  0
 22 23  2  0  0  0  0
 24 22  1  0  0  0  0
 24 25  1  0  0  0  0
 26 27  2  0  0  0  0
 28 29  1  0  0  0  0
 28 26  1  0  0  0  0
M  RAD  1   2   2
M  END
