Coordinates from ORCA-job 1g-Schema6-R11-K+-B3LYPG-6-31G_dp-scan-d49-09-n400
 OpenBabel08281819543D

 29 31  0  0  1  0  0  0  0  0999 V2000
    1.2614    2.1302    0.4903 C   0  0  0  0  0  0  0  0  0  0  0  0
    1.9821    1.0187    0.0997 C   0  0  0  0  0  0  0  0  0  0  0  0
    1.3554   -0.2656    0.0704 C   0  0  0  0  0  0  0  0  0  0  0  0
   -0.0076   -0.3435    0.4254 C   0  0  0  0  0  0  0  0  0  0  0  0
   -0.7087    0.7703    0.8934 C   0  0  0  0  0  0  0  0  0  0  0  0
   -0.0737    2.0109    0.9194 C   0  0  0  0  0  0  0  0  0  0  0  0
    1.7369    3.1054    0.4937 H   0  0  0  0  0  0  0  0  0  0  0  0
   -0.6078    2.8854    1.2736 H   0  0  0  0  0  0  0  0  0  0  0  0
   -0.5235   -1.2961    0.3456 H   0  0  0  0  0  0  0  0  0  0  0  0
    1.8871   -1.3808   -0.4649 N   0  0  0  0  0  0  0  0  0  0  0  0
    3.0238   -1.1879   -0.0824 N   0  0  0  0  0  0  0  0  0  0  0  0
    3.8757   -0.2613    0.2178 C   0  0  0  0  0  0  0  0  0  0  0  0
    4.8995   -0.3915    1.1929 C   0  0  0  0  0  0  0  0  0  0  0  0
    3.4568    1.0634   -0.3602 C   0  0  2  0  0  0  0  0  0  0  0  0
    5.5833    0.7354    1.5593 C   0  0  0  0  0  0  0  0  0  0  0  0
    5.0997   -1.3605    1.6347 H   0  0  0  0  0  0  0  0  0  0  0  0
    4.3221    2.2018    0.0674 C   0  0  0  0  0  0  0  0  0  0  0  0
    3.4399    1.0560   -1.4635 H   0  0  0  0  0  0  0  0  0  0  0  0
    5.3071    2.0343    0.9835 C   0  0  0  0  0  0  0  0  0  0  0  0
    6.3775    0.6856    2.2983 H   0  0  0  0  0  0  0  0  0  0  0  0
    4.1938    3.1565   -0.4321 H   0  0  0  0  0  0  0  0  0  0  0  0
   -2.1351    0.5697    1.3121 C   0  0  0  0  0  0  0  0  0  0  0  0
   -2.6917   -0.5035    1.2686 O   0  0  0  0  0  0  0  0  0  0  0  0
   -2.7050    1.7113    1.7349 O   0  0  0  0  0  0  0  0  0  0  0  0
   -3.6214    1.5059    1.9891 H   0  0  0  0  0  0  0  0  0  0  0  0
    6.1920    3.1628    1.4343 C   0  0  0  0  0  0  0  0  0  0  0  0
    7.0654    3.0174    2.2580 O   0  0  0  0  0  0  0  0  0  0  0  0
    5.8888    4.3228    0.8301 O   0  0  0  0  0  0  0  0  0  0  0  0
    6.4985    5.0021    1.1677 H   0  0  0  0  0  0  0  0  0  0  0  0
  1  7  1  0  0  0  0
  1  6  2  0  0  0  0
  2  1  1  0  0  0  0
  3  2  2  0  0  0  0
  3  4  1  0  0  0  0
  4  5  2  0  0  0  0
  5  6  1  0  0  0  0
  5 22  1  0  0  0  0
  6  8  1  0  0  0  0
  9  4  1  0  0  0  0
 10 11  1  0  0  0  0
 10  3  1  0  0  0  0
 11 12  1  0  0  0  0
 12 13  2  0  0  0  0
 13 15  1  0  0  0  0
 13 16  1  0  0  0  0
 14 18  1  6  0  0  0
 14 17  1  0  0  0  0
 14  2  1  0  0  0  0
 14 12  1  0  0  0  0
 15 20  1  0  0  0  0
 17 19  2  0  0  0  0
 19 26  1  0  0  0  0
 19 15  1  0  0  0  0
 21 17  1  0  0  0  0
 22 24  1  0  0  0  0
 23 22  2  0  0  0  0
 24 25  1  0  0  0  0
 26 27  2  0  0  0  0
 28 29  1  0  0  0  0
 28 26  1  0  0  0  0
M  RAD  3  10   2  11   2  15   2
M  END
