Coordinates from ORCA-job 1g-Schema6-R11-K+-B3LYPG-6-31G_dp-scan-d49-09-n400
 OpenBabel08281819543D

 29 32  0  0  1  0  0  0  0  0999 V2000
    0.9346    2.3529    0.3672 C   0  0  0  0  0  0  0  0  0  0  0  0
    1.8380    1.3089    0.2640 C   0  0  0  0  0  0  0  0  0  0  0  0
    1.4044   -0.0700    0.3321 C   0  0  1  0  0  0  0  0  0  0  0  0
    0.0446   -0.3632    0.7056 C   0  0  0  0  0  0  0  0  0  0  0  0
   -0.8331    0.6848    0.8323 C   0  0  0  0  0  0  0  0  0  0  0  0
   -0.3963    2.0310    0.6420 C   0  0  0  0  0  0  0  0  0  0  0  0
    1.2401    3.3907    0.2875 H   0  0  0  0  0  0  0  0  0  0  0  0
   -1.1277    2.8248    0.7504 H   0  0  0  0  0  0  0  0  0  0  0  0
   -0.2953   -1.3890    0.8083 H   0  0  0  0  0  0  0  0  0  0  0  0
    2.0662   -0.8420   -0.8245 N   0  0  0  0  0  0  0  0  0  0  0  0
    2.5447   -0.8914    0.4610 N   0  0  0  0  0  0  0  0  0  0  0  0
    3.6987   -0.0749    0.7137 C   0  0  0  0  0  0  0  0  0  0  0  0
    4.9211   -0.4089    1.2104 C   0  0  0  0  0  0  0  0  0  0  0  0
    3.3525    1.2728    0.2149 C   0  0  2  0  0  0  0  0  0  0  0  0
    5.8707    0.6359    1.2854 C   0  0  0  0  0  0  0  0  0  0  0  0
    5.1604   -1.4201    1.5208 H   0  0  0  0  0  0  0  0  0  0  0  0
    4.2945    2.3341    0.5190 C   0  0  0  0  0  0  0  0  0  0  0  0
    3.4700    0.9933   -0.8933 H   0  0  0  0  0  0  0  0  0  0  0  0
    5.5555    1.9776    0.9690 C   0  0  0  0  0  0  0  0  0  0  0  0
    6.8876    0.4286    1.6054 H   0  0  0  0  0  0  0  0  0  0  0  0
    4.0359    3.3776    0.3741 H   0  0  0  0  0  0  0  0  0  0  0  0
   -2.2614    0.3540    1.1670 C   0  0  0  0  0  0  0  0  0  0  0  0
   -2.6539   -0.7759    1.3389 O   0  0  0  0  0  0  0  0  0  0  0  0
   -3.0258    1.4559    1.2547 O   0  0  0  0  0  0  0  0  0  0  0  0
   -3.9299    1.1722    1.4762 H   0  0  0  0  0  0  0  0  0  0  0  0
    6.6401    2.9972    1.1944 C   0  0  0  0  0  0  0  0  0  0  0  0
    7.7480    2.7049    1.5777 O   0  0  0  0  0  0  0  0  0  0  0  0
    6.2228    4.2433    0.9178 O   0  0  0  0  0  0  0  0  0  0  0  0
    6.9653    4.8501    1.0850 H   0  0  0  0  0  0  0  0  0  0  0  0
  1  6  1  0  0  0  0
  2  3  1  0  0  0  0
  2  1  2  0  0  0  0
  3 10  1  6  0  0  0
  3 11  1  0  0  0  0
  3  4  1  0  0  0  0
  4  9  1  0  0  0  0
  4  5  2  0  0  0  0
  5 22  1  0  0  0  0
  6  8  1  0  0  0  0
  6  5  1  0  0  0  0
  7  1  1  0  0  0  0
 10 11  1  0  0  0  0
 11 12  1  0  0  0  0
 12 13  2  0  0  0  0
 13 15  1  0  0  0  0
 13 16  1  0  0  0  0
 14 18  1  6  0  0  0
 14  2  1  0  0  0  0
 14 17  1  0  0  0  0
 14 12  1  0  0  0  0
 15 20  1  0  0  0  0
 17 19  2  0  0  0  0
 19 26  1  0  0  0  0
 19 15  1  0  0  0  0
 21 17  1  0  0  0  0
 22 24  1  0  0  0  0
 22 23  2  0  0  0  0
 24 25  1  0  0  0  0
 26 27  2  0  0  0  0
 28 29  1  0  0  0  0
 28 26  1  0  0  0  0
M  RAD  3   6   2  10   2  15   2
M  END
