Coordinates from ORCA-job 1g-Schema6-R11-K+-B3LYPG-6-31G_dp-scan-d49-09-n400
 OpenBabel08281819543D

 29 29  0  0  0  0  0  0  0  0999 V2000
   -0.8087    2.0677   -1.6805 C   0  0  0  0  0  0  0  0  0  0  0  0
    0.3841    1.6306   -1.1579 C   0  0  0  0  0  0  0  0  0  0  0  0
    0.7419    1.1993   -0.0343 C   0  0  0  0  0  0  0  0  0  0  0  0
   -0.1838    1.0923    1.0066 C   0  0  0  0  0  0  0  0  0  0  0  0
   -1.4851    1.5070    0.6357 C   0  0  0  0  0  0  0  0  0  0  0  0
   -1.7837    1.9777   -0.6615 C   0  0  0  0  0  0  0  0  0  0  0  0
   -1.0209    2.4278   -2.6786 H   0  0  0  0  0  0  0  0  0  0  0  0
   -2.7992    2.2849   -0.8884 H   0  0  0  0  0  0  0  0  0  0  0  0
    0.0054    0.7387    2.0135 H   0  0  0  0  0  0  0  0  0  0  0  0
    3.3876   -2.4961   -0.3571 N   0  0  0  0  0  0  0  0  0  0  0  0
    3.9865   -1.6349    0.0215 N   0  0  0  0  0  0  0  0  0  0  0  0
    4.7226   -0.5690    0.4893 C   0  0  0  0  0  0  0  0  0  0  0  0
    6.0817   -0.7885    0.8024 C   0  0  0  0  0  0  0  0  0  0  0  0
    4.0636    0.6692    0.6251 C   0  0  0  0  0  0  0  0  0  0  0  0
    6.7977    0.2976    1.2734 C   0  0  0  0  0  0  0  0  0  0  0  0
    6.5351   -1.7656    0.6769 H   0  0  0  0  0  0  0  0  0  0  0  0
    4.8192    1.7319    1.1005 C   0  0  0  0  0  0  0  0  0  0  0  0
    3.0092    0.7775    0.3669 H   0  0  0  0  0  0  0  0  0  0  0  0
    6.1735    1.5489    1.4224 C   0  0  0  0  0  0  0  0  0  0  0  0
    7.8459    0.2046    1.5361 H   0  0  0  0  0  0  0  0  0  0  0  0
    4.3605    2.7061    1.2248 H   0  0  0  0  0  0  0  0  0  0  0  0
   -2.5359    1.4199    1.6974 C   0  0  0  0  0  0  0  0  0  0  0  0
   -2.3282    1.0206    2.8239 O   0  0  0  0  0  0  0  0  0  0  0  0
   -3.7484    1.8318    1.2712 O   0  0  0  0  0  0  0  0  0  0  0  0
   -4.3564    1.7384    2.0242 H   0  0  0  0  0  0  0  0  0  0  0  0
    7.0283    2.6766    1.9432 C   0  0  0  0  0  0  0  0  0  0  0  0
    8.1948    2.5313    2.2245 O   0  0  0  0  0  0  0  0  0  0  0  0
    6.3412    3.8223    2.0479 O   0  0  0  0  0  0  0  0  0  0  0  0
    6.9440    4.5067    2.3880 H   0  0  0  0  0  0  0  0  0  0  0  0
  1  2  2  0  0  0  0
  1  6  1  0  0  0  0
  2  3  1  0  0  0  0
  3  4  2  0  0  0  0
  4  9  1  0  0  0  0
  5  4  1  0  0  0  0
  5 22  1  0  0  0  0
  6  5  2  0  0  0  0
  7  1  1  0  0  0  0
  8  6  1  0  0  0  0
 10 11  1  0  0  0  0
 11 12  1  0  0  0  0
 12 14  2  0  0  0  0
 12 13  1  0  0  0  0
 13 15  2  0  0  0  0
 14 17  1  0  0  0  0
 15 19  1  0  0  0  0
 15 20  1  0  0  0  0
 16 13  1  0  0  0  0
 17 21  1  0  0  0  0
 17 19  2  0  0  0  0
 18 14  1  0  0  0  0
 19 26  1  0  0  0  0
 22 23  2  0  0  0  0
 24 22  1  0  0  0  0
 24 25  1  0  0  0  0
 26 28  1  0  0  0  0
 26 27  2  0  0  0  0
 28 29  1  0  0  0  0
M  RAD  4   2   2   3   2  10   3  11   2
M  END
