Coordinates from ORCA-job 1g-Schema6-R11-K+-B3LYPG-6-31G_dp-scan-d49-09-n400
 OpenBabel08281819543D

 29 29  0  0  0  0  0  0  0  0999 V2000
   -0.8652    1.8448   -1.7181 C   0  0  0  0  0  0  0  0  0  0  0  0
    0.3369    1.5136   -1.1408 C   0  0  0  0  0  0  0  0  0  0  0  0
    0.6810    1.1377    0.0069 C   0  0  0  0  0  0  0  0  0  0  0  0
   -0.2709    0.9911    1.0194 C   0  0  0  0  0  0  0  0  0  0  0  0
   -1.5842    1.2953    0.5890 C   0  0  0  0  0  0  0  0  0  0  0  0
   -1.8676    1.7074   -0.7315 C   0  0  0  0  0  0  0  0  0  0  0  0
   -1.0662    2.1632   -2.7326 H   0  0  0  0  0  0  0  0  0  0  0  0
   -2.8940    1.9319   -1.0028 H   0  0  0  0  0  0  0  0  0  0  0  0
   -0.0940    0.6810    2.0428 H   0  0  0  0  0  0  0  0  0  0  0  0
    2.6949   -1.7086   -0.1909 N   0  0  0  0  0  0  0  0  0  0  0  0
    3.5091   -1.0304    0.1553 N   0  0  0  0  0  0  0  0  0  0  0  0
    4.4838   -0.1561    0.5843 C   0  0  0  0  0  0  0  0  0  0  0  0
    5.7637   -0.6710    0.8789 C   0  0  0  0  0  0  0  0  0  0  0  0
    4.1258    1.2021    0.6998 C   0  0  0  0  0  0  0  0  0  0  0  0
    6.7177    0.2344    1.3101 C   0  0  0  0  0  0  0  0  0  0  0  0
    5.9815   -1.7276    0.7700 H   0  0  0  0  0  0  0  0  0  0  0  0
    5.1111    2.0762    1.1360 C   0  0  0  0  0  0  0  0  0  0  0  0
    3.1162    1.5223    0.4532 H   0  0  0  0  0  0  0  0  0  0  0  0
    6.3963    1.5970    1.4386 C   0  0  0  0  0  0  0  0  0  0  0  0
    7.7236   -0.0881    1.5558 H   0  0  0  0  0  0  0  0  0  0  0  0
    4.8896    3.1314    1.2450 H   0  0  0  0  0  0  0  0  0  0  0  0
   -2.6660    1.1564    1.6145 C   0  0  0  0  0  0  0  0  0  0  0  0
   -2.4712    0.8004    2.7575 O   0  0  0  0  0  0  0  0  0  0  0  0
   -3.8873    1.4680    1.1336 O   0  0  0  0  0  0  0  0  0  0  0  0
   -4.5164    1.3487    1.8654 H   0  0  0  0  0  0  0  0  0  0  0  0
    7.4951    2.5127    1.9154 C   0  0  0  0  0  0  0  0  0  0  0  0
    8.6057    2.1136    2.1781 O   0  0  0  0  0  0  0  0  0  0  0  0
    7.0869    3.7859    2.0056 O   0  0  0  0  0  0  0  0  0  0  0  0
    7.8367    4.3220    2.3189 H   0  0  0  0  0  0  0  0  0  0  0  0
  1  2  2  0  0  0  0
  1  6  1  0  0  0  0
  2  3  1  0  0  0  0
  3  4  2  0  0  0  0
  4  9  1  0  0  0  0
  5  4  1  0  0  0  0
  5 22  1  0  0  0  0
  6  5  2  0  0  0  0
  7  1  1  0  0  0  0
  8  6  1  0  0  0  0
 10 11  1  0  0  0  0
 11 12  1  0  0  0  0
 12 14  2  0  0  0  0
 12 13  1  0  0  0  0
 13 15  2  0  0  0  0
 14 17  1  0  0  0  0
 15 19  1  0  0  0  0
 15 20  1  0  0  0  0
 16 13  1  0  0  0  0
 17 21  1  0  0  0  0
 17 19  2  0  0  0  0
 18 14  1  0  0  0  0
 19 26  1  0  0  0  0
 22 23  2  0  0  0  0
 24 22  1  0  0  0  0
 24 25  1  0  0  0  0
 26 28  1  0  0  0  0
 26 27  2  0  0  0  0
 28 29  1  0  0  0  0
M  RAD  4   2   2   3   2  10   3  11   2
M  END
