Coordinates from ORCA-job 1g-Schema6-R11-K+-B3LYPG-6-31G_dp-scan-d49-09-n400
 OpenBabel08281819543D

 29 29  0  0  0  0  0  0  0  0999 V2000
   -0.9888    1.4919   -1.8730 C   0  0  0  0  0  0  0  0  0  0  0  0
    0.1490    0.8786   -1.4244 C   0  0  0  0  0  0  0  0  0  0  0  0
    0.5653    0.4354   -0.3199 C   0  0  0  0  0  0  0  0  0  0  0  0
   -0.2725    0.5355    0.7984 C   0  0  0  0  0  0  0  0  0  0  0  0
   -1.5134    1.1562    0.5264 C   0  0  0  0  0  0  0  0  0  0  0  0
   -1.8584    1.6143   -0.7629 C   0  0  0  0  0  0  0  0  0  0  0  0
   -1.2336    1.8370   -2.8686 H   0  0  0  0  0  0  0  0  0  0  0  0
   -2.8268    2.0788   -0.9173 H   0  0  0  0  0  0  0  0  0  0  0  0
   -0.0514    0.1862    1.8009 H   0  0  0  0  0  0  0  0  0  0  0  0
    2.4367   -1.2805   -0.2546 N   0  0  0  0  0  0  0  0  0  0  0  0
    3.3741   -0.7893    0.1197 N   0  0  0  0  0  0  0  0  0  0  0  0
    4.3915    0.0212    0.5830 C   0  0  0  0  0  0  0  0  0  0  0  0
    5.6547   -0.5483    0.8273 C   0  0  0  0  0  0  0  0  0  0  0  0
    4.0896    1.3823    0.7831 C   0  0  0  0  0  0  0  0  0  0  0  0
    6.6506    0.2957    1.2928 C   0  0  0  0  0  0  0  0  0  0  0  0
    5.8315   -1.6039    0.6543 H   0  0  0  0  0  0  0  0  0  0  0  0
    5.1098    2.1978    1.2509 C   0  0  0  0  0  0  0  0  0  0  0  0
    3.0939    1.7585    0.5740 H   0  0  0  0  0  0  0  0  0  0  0  0
    6.3820    1.6578    1.5039 C   0  0  0  0  0  0  0  0  0  0  0  0
    7.6475   -0.0760    1.5021 H   0  0  0  0  0  0  0  0  0  0  0  0
    4.9280    3.2519    1.4235 H   0  0  0  0  0  0  0  0  0  0  0  0
   -2.4497    1.3023    1.6869 C   0  0  0  0  0  0  0  0  0  0  0  0
   -2.1822    0.9474    2.8147 O   0  0  0  0  0  0  0  0  0  0  0  0
   -3.6208    1.8740    1.3428 O   0  0  0  0  0  0  0  0  0  0  0  0
   -4.1607    1.9251    2.1501 H   0  0  0  0  0  0  0  0  0  0  0  0
    7.5189    2.5063    2.0112 C   0  0  0  0  0  0  0  0  0  0  0  0
    8.6195    2.0582    2.2336 O   0  0  0  0  0  0  0  0  0  0  0  0
    7.1568    3.7865    2.1837 O   0  0  0  0  0  0  0  0  0  0  0  0
    7.9312    4.2746    2.5144 H   0  0  0  0  0  0  0  0  0  0  0  0
  1  2  2  0  0  0  0
  1  6  1  0  0  0  0
  2  3  1  0  0  0  0
  3  4  2  0  0  0  0
  4  9  1  0  0  0  0
  5  4  1  0  0  0  0
  5 22  1  0  0  0  0
  6  5  2  0  0  0  0
  7  1  1  0  0  0  0
  8  6  1  0  0  0  0
 10 11  1  0  0  0  0
 11 12  1  0  0  0  0
 12 14  2  0  0  0  0
 12 13  1  0  0  0  0
 13 15  2  0  0  0  0
 14 17  1  0  0  0  0
 15 20  1  0  0  0  0
 15 19  1  0  0  0  0
 16 13  1  0  0  0  0
 17 21  1  0  0  0  0
 17 19  2  0  0  0  0
 18 14  1  0  0  0  0
 19 26  1  0  0  0  0
 22 23  2  0  0  0  0
 24 22  1  0  0  0  0
 24 25  1  0  0  0  0
 26 28  1  0  0  0  0
 26 27  2  0  0  0  0
 28 29  1  0  0  0  0
M  RAD  4   2   2   3   2  10   3  11   2
M  END
