Coordinates from ORCA-job 1g-Schema6-R11-K+-B3LYPG-6-31G_dp-scan-d49-09-n400
 OpenBabel08281819543D

 29 30  0  0  0  0  0  0  0  0999 V2000
   -0.7181    1.5120   -1.7727 C   0  0  0  0  0  0  0  0  0  0  0  0
    0.2662    0.5914   -1.7285 C   0  0  0  0  0  0  0  0  0  0  0  0
    1.0270   -0.0036   -0.8322 C   0  0  0  0  0  0  0  0  0  0  0  0
    0.5536    0.2489    0.4830 C   0  0  0  0  0  0  0  0  0  0  0  0
   -0.5342    1.1106    0.6521 C   0  0  0  0  0  0  0  0  0  0  0  0
   -1.1701    1.7227   -0.4439 C   0  0  0  0  0  0  0  0  0  0  0  0
   -1.2093    1.9305   -2.6434 H   0  0  0  0  0  0  0  0  0  0  0  0
   -2.0633    2.3229   -0.2965 H   0  0  0  0  0  0  0  0  0  0  0  0
    1.0587   -0.1709    1.3487 H   0  0  0  0  0  0  0  0  0  0  0  0
    2.1057   -1.0505   -1.0945 N   0  0  0  0  0  0  0  0  0  0  0  0
    3.1953   -1.0336   -0.5795 N   0  0  0  0  0  0  0  0  0  0  0  0
    3.9159   -0.0743    0.1467 C   0  0  0  0  0  0  0  0  0  0  0  0
    4.8403   -0.5754    1.0816 C   0  0  0  0  0  0  0  0  0  0  0  0
    3.8041    1.3061   -0.1162 C   0  0  0  0  0  0  0  0  0  0  0  0
    5.5977    0.3209    1.8209 C   0  0  0  0  0  0  0  0  0  0  0  0
    4.9307   -1.6473    1.2204 H   0  0  0  0  0  0  0  0  0  0  0  0
    4.5968    2.1854    0.6072 C   0  0  0  0  0  0  0  0  0  0  0  0
    3.1446    1.6738   -0.8935 H   0  0  0  0  0  0  0  0  0  0  0  0
    5.4808    1.6984    1.5848 C   0  0  0  0  0  0  0  0  0  0  0  0
    6.3022   -0.0216    2.5707 H   0  0  0  0  0  0  0  0  0  0  0  0
    4.5453    3.2511    0.4159 H   0  0  0  0  0  0  0  0  0  0  0  0
   -0.9751    1.3614    2.0684 C   0  0  0  0  0  0  0  0  0  0  0  0
   -0.4037    0.8928    3.0260 O   0  0  0  0  0  0  0  0  0  0  0  0
   -2.0549    2.1555    2.1284 O   0  0  0  0  0  0  0  0  0  0  0  0
   -2.2888    2.2724    3.0659 H   0  0  0  0  0  0  0  0  0  0  0  0
    6.3517    2.6144    2.3952 C   0  0  0  0  0  0  0  0  0  0  0  0
    7.1184    2.2212    3.2448 O   0  0  0  0  0  0  0  0  0  0  0  0
    6.1784    3.9084    2.0682 O   0  0  0  0  0  0  0  0  0  0  0  0
    6.7767    4.4317    2.6291 H   0  0  0  0  0  0  0  0  0  0  0  0
  1  2  2  0  0  0  0
  1  6  1  0  0  0  0
  2  3  1  0  0  0  0
  3  4  2  0  0  0  0
  4  5  1  0  0  0  0
  4  9  1  0  0  0  0
  5 22  1  0  0  0  0
  6  8  1  0  0  0  0
  6  5  2  0  0  0  0
  7  1  1  0  0  0  0
 10  3  1  0  0  0  0
 10 11  2  0  0  0  0
 11 12  1  0  0  0  0
 12 13  1  0  0  0  0
 13 16  1  0  0  0  0
 13 15  2  0  0  0  0
 14 12  2  0  0  0  0
 14 17  1  0  0  0  0
 15 20  1  0  0  0  0
 17 19  2  0  0  0  0
 18 14  1  0  0  0  0
 19 15  1  0  0  0  0
 19 26  1  0  0  0  0
 21 17  1  0  0  0  0
 22 24  1  0  0  0  0
 22 23  2  0  0  0  0
 24 25  1  0  0  0  0
 26 27  2  0  0  0  0
 28 26  1  0  0  0  0
 28 29  1  0  0  0  0
M  RAD  1   2   2
M  END
