Coordinates from ORCA-job 1g-Schema6-R11-K+-B3LYPG-6-31G_dp-scan-d49-09-n400
 OpenBabel08281819543D

 29 30  0  0  0  0  0  0  0  0999 V2000
   -0.6863    1.5323   -1.7544 C   0  0  0  0  0  0  0  0  0  0  0  0
    0.2814    0.5944   -1.7333 C   0  0  0  0  0  0  0  0  0  0  0  0
    1.0520   -0.0206   -0.8545 C   0  0  0  0  0  0  0  0  0  0  0  0
    0.5956    0.2282    0.4691 C   0  0  0  0  0  0  0  0  0  0  0  0
   -0.4764    1.1031    0.6626 C   0  0  0  0  0  0  0  0  0  0  0  0
   -1.1179    1.7367   -0.4180 C   0  0  0  0  0  0  0  0  0  0  0  0
   -1.1839    1.9653   -2.6145 H   0  0  0  0  0  0  0  0  0  0  0  0
   -2.0011    2.3471   -0.2528 H   0  0  0  0  0  0  0  0  0  0  0  0
    1.1053   -0.2082    1.3238 H   0  0  0  0  0  0  0  0  0  0  0  0
    2.0991   -1.0543   -1.1394 N   0  0  0  0  0  0  0  0  0  0  0  0
    3.1816   -1.0403   -0.6101 N   0  0  0  0  0  0  0  0  0  0  0  0
    3.8854   -0.0773    0.1268 C   0  0  0  0  0  0  0  0  0  0  0  0
    4.7693   -0.5701    1.1046 C   0  0  0  0  0  0  0  0  0  0  0  0
    3.8049    1.2985   -0.1704 C   0  0  0  0  0  0  0  0  0  0  0  0
    5.5109    0.3319    1.8525 C   0  0  0  0  0  0  0  0  0  0  0  0
    4.8409   -1.6400    1.2687 H   0  0  0  0  0  0  0  0  0  0  0  0
    4.5838    2.1828    0.5621 C   0  0  0  0  0  0  0  0  0  0  0  0
    3.1817    1.6579   -0.9811 H   0  0  0  0  0  0  0  0  0  0  0  0
    5.4232    1.7057    1.5827 C   0  0  0  0  0  0  0  0  0  0  0  0
    6.1822   -0.0036    2.6352 H   0  0  0  0  0  0  0  0  0  0  0  0
    4.5562    3.2443    0.3445 H   0  0  0  0  0  0  0  0  0  0  0  0
   -0.8948    1.3437    2.0875 C   0  0  0  0  0  0  0  0  0  0  0  0
   -0.3176    0.8557    3.0317 O   0  0  0  0  0  0  0  0  0  0  0  0
   -1.9620    2.1525    2.1707 O   0  0  0  0  0  0  0  0  0  0  0  0
   -2.1823    2.2622    3.1123 H   0  0  0  0  0  0  0  0  0  0  0  0
    6.2774    2.6270    2.4043 C   0  0  0  0  0  0  0  0  0  0  0  0
    7.0059    2.2423    3.2906 O   0  0  0  0  0  0  0  0  0  0  0  0
    6.1363    3.9157    2.0426 O   0  0  0  0  0  0  0  0  0  0  0  0
    6.7217    4.4426    2.6134 H   0  0  0  0  0  0  0  0  0  0  0  0
  1  2  2  0  0  0  0
  1  6  1  0  0  0  0
  2  3  1  0  0  0  0
  3  4  2  0  0  0  0
  4  5  1  0  0  0  0
  4  9  1  0  0  0  0
  5 22  1  0  0  0  0
  6  8  1  0  0  0  0
  6  5  2  0  0  0  0
  7  1  1  0  0  0  0
 10  3  1  0  0  0  0
 10 11  2  0  0  0  0
 11 12  1  0  0  0  0
 12 13  1  0  0  0  0
 13 16  1  0  0  0  0
 13 15  2  0  0  0  0
 14 12  2  0  0  0  0
 14 17  1  0  0  0  0
 15 20  1  0  0  0  0
 17 19  2  0  0  0  0
 18 14  1  0  0  0  0
 19 15  1  0  0  0  0
 19 26  1  0  0  0  0
 21 17  1  0  0  0  0
 22 24  1  0  0  0  0
 22 23  2  0  0  0  0
 24 25  1  0  0  0  0
 26 27  2  0  0  0  0
 28 26  1  0  0  0  0
 28 29  1  0  0  0  0
M  RAD  1   2   2
M  END
