Coordinates from ORCA-job 1g-Schema6-R11-K+-B3LYPG-6-31G_dp-scan-d49-09-n400
 OpenBabel08281819543D

 29 29  0  0  0  0  0  0  0  0999 V2000
   -0.9437    1.9570   -1.7558 C   0  0  0  0  0  0  0  0  0  0  0  0
    0.3072    1.6940   -1.2546 C   0  0  0  0  0  0  0  0  0  0  0  0
    0.7497    1.3286   -0.1373 C   0  0  0  0  0  0  0  0  0  0  0  0
   -0.1316    1.1184    0.9274 C   0  0  0  0  0  0  0  0  0  0  0  0
   -1.4853    1.3462    0.5834 C   0  0  0  0  0  0  0  0  0  0  0  0
   -1.8741    1.7522   -0.7116 C   0  0  0  0  0  0  0  0  0  0  0  0
   -1.2242    2.2725   -2.7521 H   0  0  0  0  0  0  0  0  0  0  0  0
   -2.9267    1.9192   -0.9165 H   0  0  0  0  0  0  0  0  0  0  0  0
    0.1252    0.8126    1.9352 H   0  0  0  0  0  0  0  0  0  0  0  0
    2.7734   -1.8524   -0.2826 N   0  0  0  0  0  0  0  0  0  0  0  0
    3.5395   -1.1325    0.0888 N   0  0  0  0  0  0  0  0  0  0  0  0
    4.4738   -0.2299    0.5478 C   0  0  0  0  0  0  0  0  0  0  0  0
    5.7221   -0.7239    0.9829 C   0  0  0  0  0  0  0  0  0  0  0  0
    4.1100    1.1317    0.5525 C   0  0  0  0  0  0  0  0  0  0  0  0
    6.6359    0.2078    1.4430 C   0  0  0  0  0  0  0  0  0  0  0  0
    5.9464   -1.7846    0.9554 H   0  0  0  0  0  0  0  0  0  0  0  0
    5.0550    2.0323    1.0231 C   0  0  0  0  0  0  0  0  0  0  0  0
    3.1228    1.4330    0.2046 H   0  0  0  0  0  0  0  0  0  0  0  0
    6.3072    1.5748    1.4645 C   0  0  0  0  0  0  0  0  0  0  0  0
    7.6155   -0.0969    1.7944 H   0  0  0  0  0  0  0  0  0  0  0  0
    4.8266    3.0914    1.0513 H   0  0  0  0  0  0  0  0  0  0  0  0
   -2.4904    1.1320    1.6715 C   0  0  0  0  0  0  0  0  0  0  0  0
   -2.2047    0.7670    2.7927 O   0  0  0  0  0  0  0  0  0  0  0  0
   -3.7548    1.3851    1.2755 O   0  0  0  0  0  0  0  0  0  0  0  0
   -4.3280    1.2196    2.0433 H   0  0  0  0  0  0  0  0  0  0  0  0
    7.3617    2.5190    1.9840 C   0  0  0  0  0  0  0  0  0  0  0  0
    8.4438    2.1383    2.3658 O   0  0  0  0  0  0  0  0  0  0  0  0
    6.9499    3.7940    1.9666 O   0  0  0  0  0  0  0  0  0  0  0  0
    7.6703    4.3489    2.3140 H   0  0  0  0  0  0  0  0  0  0  0  0
  1  2  2  0  0  0  0
  1  6  1  0  0  0  0
  2  3  1  0  0  0  0
  3  4  2  0  0  0  0
  4  9  1  0  0  0  0
  5  4  1  0  0  0  0
  5 22  1  0  0  0  0
  6  5  2  0  0  0  0
  7  1  1  0  0  0  0
  8  6  1  0  0  0  0
 10 11  1  0  0  0  0
 11 12  1  0  0  0  0
 12 14  2  0  0  0  0
 12 13  1  0  0  0  0
 13 15  2  0  0  0  0
 14 17  1  0  0  0  0
 15 19  1  0  0  0  0
 15 20  1  0  0  0  0
 16 13  1  0  0  0  0
 17 21  1  0  0  0  0
 17 19  2  0  0  0  0
 18 14  1  0  0  0  0
 19 26  1  0  0  0  0
 22 23  2  0  0  0  0
 24 22  1  0  0  0  0
 24 25  1  0  0  0  0
 26 27  2  0  0  0  0
 28 26  1  0  0  0  0
 28 29  1  0  0  0  0
M  RAD  4   2   2   3   2  10   3  11   2
M  END
