Coordinates from ORCA-job 1g-Schema6-R11-K+-B3LYPG-6-31G_dp-scan-d49-09-n400
 OpenBabel08281819543D

 29 31  0  0  0  0  0  0  0  0999 V2000
    0.8982    2.4804    0.5998 C   0  0  0  0  0  0  0  0  0  0  0  0
    1.8964    1.5217    0.6384 C   0  0  0  0  0  0  0  0  0  0  0  0
    1.5916   -0.0014    0.7100 C   0  0  0  0  0  0  0  0  0  0  0  0
    0.1288   -0.3130    0.9121 C   0  0  0  0  0  0  0  0  0  0  0  0
   -0.8061    0.6777    0.7972 C   0  0  0  0  0  0  0  0  0  0  0  0
   -0.4273    2.0499    0.6551 C   0  0  0  0  0  0  0  0  0  0  0  0
    1.1250    3.5422    0.5805 H   0  0  0  0  0  0  0  0  0  0  0  0
   -1.2236    2.7870    0.6290 H   0  0  0  0  0  0  0  0  0  0  0  0
   -0.1702   -1.3529    1.0101 H   0  0  0  0  0  0  0  0  0  0  0  0
    1.9248   -0.8824   -0.5699 N   0  0  0  0  0  0  0  0  0  0  0  0
    2.4182   -0.5853    0.8396 N   0  0  0  0  0  0  0  0  0  0  0  0
    3.6601    0.1295    0.9187 C   0  0  0  0  0  0  0  0  0  0  0  0
    4.9554   -0.3333    1.0467 C   0  0  0  0  0  0  0  0  0  0  0  0
    3.3143    1.5091    0.8034 C   0  0  0  0  0  0  0  0  0  0  0  0
    5.9455    0.6504    1.0800 C   0  0  0  0  0  0  0  0  0  0  0  0
    5.1869   -1.3888    1.1313 H   0  0  0  0  0  0  0  0  0  0  0  0
    4.3318    2.4803    0.8438 C   0  0  0  0  0  0  0  0  0  0  0  0
    2.4224   -0.1688   -1.1333 H   0  0  0  0  0  0  0  0  0  0  0  0
    5.6418    2.0310    0.9821 C   0  0  0  0  0  0  0  0  0  0  0  0
    6.9898    0.3778    1.1943 H   0  0  0  0  0  0  0  0  0  0  0  0
    4.1190    3.5412    0.7767 H   0  0  0  0  0  0  0  0  0  0  0  0
   -2.2539    0.2686    0.8790 C   0  0  0  0  0  0  0  0  0  0  0  0
   -2.6090   -0.8796    0.9987 O   0  0  0  0  0  0  0  0  0  0  0  0
   -3.0779    1.3275    0.8076 O   0  0  0  0  0  0  0  0  0  0  0  0
   -3.9917    0.9986    0.8723 H   0  0  0  0  0  0  0  0  0  0  0  0
    6.8036    2.9826    1.0438 C   0  0  0  0  0  0  0  0  0  0  0  0
    7.9509    2.6198    1.1640 O   0  0  0  0  0  0  0  0  0  0  0  0
    6.4143    4.2662    0.9489 O   0  0  0  0  0  0  0  0  0  0  0  0
    7.2134    4.8191    0.9972 H   0  0  0  0  0  0  0  0  0  0  0  0
  1  2  2  0  0  0  0
  1  6  1  0  0  0  0
  2  3  1  0  0  0  0
  2 14  1  0  0  0  0
  3 11  1  0  0  0  0
  3  4  2  0  0  0  0
  4  9  1  0  0  0  0
  5 22  1  0  0  0  0
  5  4  1  0  0  0  0
  6  5  2  0  0  0  0
  7  1  1  0  0  0  0
  8  6  1  0  0  0  0
 10 11  1  0  0  0  0
 11 12  1  0  0  0  0
 12 13  2  0  0  0  0
 13 15  1  0  0  0  0
 13 16  1  0  0  0  0
 14 17  2  0  0  0  0
 14 12  1  0  0  0  0
 15 20  1  0  0  0  0
 17 19  1  0  0  0  0
 18 10  1  0  0  0  0
 19 26  1  0  0  0  0
 19 15  2  0  0  0  0
 21 17  1  0  0  0  0
 22 23  2  0  0  0  0
 24 25  1  0  0  0  0
 24 22  1  0  0  0  0
 26 27  2  0  0  0  0
 28 29  1  0  0  0  0
 28 26  1  0  0  0  0
M  RAD  1  10   2
M  END
