Coordinates from ORCA-job 1g-Schema6-R11-K+-B3LYPG-6-31G_dp-scan-d49-09-n400
 OpenBabel08281819543D

 29 29  0  0  0  0  0  0  0  0999 V2000
   -0.7294    2.1708   -1.6145 C   0  0  0  0  0  0  0  0  0  0  0  0
    0.4345    1.6257   -1.1246 C   0  0  0  0  0  0  0  0  0  0  0  0
    0.7592    1.1473   -0.0111 C   0  0  0  0  0  0  0  0  0  0  0  0
   -0.1491    1.0943    1.0461 C   0  0  0  0  0  0  0  0  0  0  0  0
   -1.4160    1.6251    0.7028 C   0  0  0  0  0  0  0  0  0  0  0  0
   -1.6926    2.1439   -0.5812 C   0  0  0  0  0  0  0  0  0  0  0  0
   -0.9277    2.5658   -2.6023 H   0  0  0  0  0  0  0  0  0  0  0  0
   -2.6825    2.5383   -0.7852 H   0  0  0  0  0  0  0  0  0  0  0  0
    0.0251    0.7050    2.0423 H   0  0  0  0  0  0  0  0  0  0  0  0
    3.9173   -2.8852   -0.5180 N   0  0  0  0  0  0  0  0  0  0  0  0
    4.3615   -1.9466   -0.1108 N   0  0  0  0  0  0  0  0  0  0  0  0
    4.9080   -0.7871    0.3921 C   0  0  0  0  0  0  0  0  0  0  0  0
    6.2584   -0.8213    0.8046 C   0  0  0  0  0  0  0  0  0  0  0  0
    4.0844    0.3545    0.4622 C   0  0  0  0  0  0  0  0  0  0  0  0
    6.7903    0.3525    1.3081 C   0  0  0  0  0  0  0  0  0  0  0  0
    6.8441   -1.7307    0.7267 H   0  0  0  0  0  0  0  0  0  0  0  0
    4.6577    1.5102    0.9737 C   0  0  0  0  0  0  0  0  0  0  0  0
    3.0452    0.3410    0.1362 H   0  0  0  0  0  0  0  0  0  0  0  0
    5.9978    1.5111    1.3928 C   0  0  0  0  0  0  0  0  0  0  0  0
    7.8199    0.4006    1.6449 H   0  0  0  0  0  0  0  0  0  0  0  0
    4.0639    2.4137    1.0495 H   0  0  0  0  0  0  0  0  0  0  0  0
   -2.4542    1.6075    1.7798 C   0  0  0  0  0  0  0  0  0  0  0  0
   -2.2638    1.1742    2.8968 O   0  0  0  0  0  0  0  0  0  0  0  0
   -3.6342    2.1277    1.3807 O   0  0  0  0  0  0  0  0  0  0  0  0
   -4.2361    2.0717    2.1423 H   0  0  0  0  0  0  0  0  0  0  0  0
    6.6575    2.7456    1.9534 C   0  0  0  0  0  0  0  0  0  0  0  0
    7.8102    2.7568    2.3175 O   0  0  0  0  0  0  0  0  0  0  0  0
    5.8206    3.7913    1.9909 O   0  0  0  0  0  0  0  0  0  0  0  0
    6.3027    4.5516    2.3613 H   0  0  0  0  0  0  0  0  0  0  0  0
  1  2  2  0  0  0  0
  1  6  1  0  0  0  0
  2  3  1  0  0  0  0
  3  4  2  0  0  0  0
  4  9  1  0  0  0  0
  5  4  1  0  0  0  0
  5 22  1  0  0  0  0
  6  5  2  0  0  0  0
  7  1  1  0  0  0  0
  8  6  1  0  0  0  0
 10 11  1  0  0  0  0
 11 12  1  0  0  0  0
 12 14  2  0  0  0  0
 12 13  1  0  0  0  0
 13 15  2  0  0  0  0
 14 17  1  0  0  0  0
 15 19  1  0  0  0  0
 15 20  1  0  0  0  0
 16 13  1  0  0  0  0
 17 21  1  0  0  0  0
 17 19  2  0  0  0  0
 18 14  1  0  0  0  0
 19 26  1  0  0  0  0
 22 23  2  0  0  0  0
 24 22  1  0  0  0  0
 24 25  1  0  0  0  0
 26 28  1  0  0  0  0
 26 27  2  0  0  0  0
 28 29  1  0  0  0  0
M  RAD  4   2   2   3   2  10   3  11   2
M  END
