Coordinates from ORCA-job 1g-Schema6-R11-K+-B3LYPG-6-31G_dp-scan-d49-09-n400
 OpenBabel08281819543D

 29 29  0  0  0  0  0  0  0  0999 V2000
   -1.0556    1.2717   -1.9632 C   0  0  0  0  0  0  0  0  0  0  0  0
    0.0866    0.5843   -1.6723 C   0  0  0  0  0  0  0  0  0  0  0  0
    0.6844    0.1820   -0.6328 C   0  0  0  0  0  0  0  0  0  0  0  0
    0.0772    0.4542    0.6015 C   0  0  0  0  0  0  0  0  0  0  0  0
   -1.1359    1.1736    0.5112 C   0  0  0  0  0  0  0  0  0  0  0  0
   -1.6848    1.5638   -0.7276 C   0  0  0  0  0  0  0  0  0  0  0  0
   -1.4548    1.5629   -2.9256 H   0  0  0  0  0  0  0  0  0  0  0  0
   -2.6238    2.1076   -0.7455 H   0  0  0  0  0  0  0  0  0  0  0  0
    0.4546    0.1550    1.5743 H   0  0  0  0  0  0  0  0  0  0  0  0
    2.3586   -1.3196   -0.5808 N   0  0  0  0  0  0  0  0  0  0  0  0
    3.2599   -0.8277   -0.1126 N   0  0  0  0  0  0  0  0  0  0  0  0
    4.2001    0.0099    0.4554 C   0  0  0  0  0  0  0  0  0  0  0  0
    5.4530   -0.5334    0.7956 C   0  0  0  0  0  0  0  0  0  0  0  0
    3.8566    1.3607    0.6599 C   0  0  0  0  0  0  0  0  0  0  0  0
    6.3885    0.3179    1.3628 C   0  0  0  0  0  0  0  0  0  0  0  0
    5.6673   -1.5807    0.6153 H   0  0  0  0  0  0  0  0  0  0  0  0
    4.8155    2.1865    1.2290 C   0  0  0  0  0  0  0  0  0  0  0  0
    2.8756    1.7262    0.3799 H   0  0  0  0  0  0  0  0  0  0  0  0
    6.0737    1.6685    1.5787 C   0  0  0  0  0  0  0  0  0  0  0  0
    7.3717   -0.0395    1.6477 H   0  0  0  0  0  0  0  0  0  0  0  0
    4.5959    3.2324    1.4071 H   0  0  0  0  0  0  0  0  0  0  0  0
   -1.8093    1.5016    1.8095 C   0  0  0  0  0  0  0  0  0  0  0  0
   -1.3406    1.2257    2.8927 O   0  0  0  0  0  0  0  0  0  0  0  0
   -2.9833    2.1386    1.6404 O   0  0  0  0  0  0  0  0  0  0  0  0
   -3.3478    2.3097    2.5259 H   0  0  0  0  0  0  0  0  0  0  0  0
    7.1427    2.5288    2.1990 C   0  0  0  0  0  0  0  0  0  0  0  0
    8.2319    2.1015    2.5041 O   0  0  0  0  0  0  0  0  0  0  0  0
    6.7400    3.7987    2.3626 O   0  0  0  0  0  0  0  0  0  0  0  0
    7.4746    4.2945    2.7647 H   0  0  0  0  0  0  0  0  0  0  0  0
  1  2  2  0  0  0  0
  1  6  1  0  0  0  0
  2  3  1  0  0  0  0
  3  4  2  0  0  0  0
  4  9  1  0  0  0  0
  5  4  1  0  0  0  0
  5 22  1  0  0  0  0
  6  5  2  0  0  0  0
  7  1  1  0  0  0  0
  8  6  1  0  0  0  0
 10 11  1  0  0  0  0
 11 12  1  0  0  0  0
 12 14  2  0  0  0  0
 12 13  1  0  0  0  0
 13 15  2  0  0  0  0
 14 17  1  0  0  0  0
 15 19  1  0  0  0  0
 15 20  1  0  0  0  0
 16 13  1  0  0  0  0
 17 21  1  0  0  0  0
 17 19  2  0  0  0  0
 18 14  1  0  0  0  0
 19 26  1  0  0  0  0
 22 23  2  0  0  0  0
 24 22  1  0  0  0  0
 24 25  1  0  0  0  0
 26 28  1  0  0  0  0
 26 27  2  0  0  0  0
 28 29  1  0  0  0  0
M  RAD  4   2   2   3   2  10   3  11   2
M  END
