Coordinates from ORCA-job 1g-Schema6-R11-K+-B3LYPG-6-31G_dp-scan-d49-09-n400
 OpenBabel08281819543D

 29 29  0  0  0  0  0  0  0  0999 V2000
   -1.0031    1.4938   -1.8684 C   0  0  0  0  0  0  0  0  0  0  0  0
    0.1359    0.8901   -1.4083 C   0  0  0  0  0  0  0  0  0  0  0  0
    0.5411    0.4537   -0.2976 C   0  0  0  0  0  0  0  0  0  0  0  0
   -0.3064    0.5492    0.8129 C   0  0  0  0  0  0  0  0  0  0  0  0
   -1.5493    1.1596    0.5264 C   0  0  0  0  0  0  0  0  0  0  0  0
   -1.8847    1.6122   -0.7676 C   0  0  0  0  0  0  0  0  0  0  0  0
   -1.2412    1.8348   -2.8672 H   0  0  0  0  0  0  0  0  0  0  0  0
   -2.8550    2.0687   -0.9326 H   0  0  0  0  0  0  0  0  0  0  0  0
   -0.0925    0.2046    1.8184 H   0  0  0  0  0  0  0  0  0  0  0  0
    2.4597   -1.2807   -0.2429 N   0  0  0  0  0  0  0  0  0  0  0  0
    3.3987   -0.7908    0.1269 N   0  0  0  0  0  0  0  0  0  0  0  0
    4.4182    0.0181    0.5872 C   0  0  0  0  0  0  0  0  0  0  0  0
    5.6845   -0.5492    0.8204 C   0  0  0  0  0  0  0  0  0  0  0  0
    4.1136    1.3777    0.7957 C   0  0  0  0  0  0  0  0  0  0  0  0
    6.6811    0.2953    1.2834 C   0  0  0  0  0  0  0  0  0  0  0  0
    5.8628   -1.6036    0.6412 H   0  0  0  0  0  0  0  0  0  0  0  0
    5.1349    2.1934    1.2606 C   0  0  0  0  0  0  0  0  0  0  0  0
    3.1159    1.7536    0.5954 H   0  0  0  0  0  0  0  0  0  0  0  0
    6.4102    1.6556    1.5027 C   0  0  0  0  0  0  0  0  0  0  0  0
    7.6804   -0.0747    1.4844 H   0  0  0  0  0  0  0  0  0  0  0  0
    4.9516    3.2462    1.4396 H   0  0  0  0  0  0  0  0  0  0  0  0
   -2.4987    1.3011    1.6767 C   0  0  0  0  0  0  0  0  0  0  0  0
   -2.2410    0.9501    2.8080 O   0  0  0  0  0  0  0  0  0  0  0  0
   -3.6703    1.8641    1.3195 O   0  0  0  0  0  0  0  0  0  0  0  0
   -4.2185    1.9126    2.1214 H   0  0  0  0  0  0  0  0  0  0  0  0
    7.5482    2.5047    2.0066 C   0  0  0  0  0  0  0  0  0  0  0  0
    8.6519    2.0586    2.2177 O   0  0  0  0  0  0  0  0  0  0  0  0
    7.1845    3.7835    2.1851 O   0  0  0  0  0  0  0  0  0  0  0  0
    7.9601    4.2728    2.5114 H   0  0  0  0  0  0  0  0  0  0  0  0
  1  2  2  0  0  0  0
  1  6  1  0  0  0  0
  2  3  1  0  0  0  0
  3  4  2  0  0  0  0
  4  9  1  0  0  0  0
  5  4  1  0  0  0  0
  5 22  1  0  0  0  0
  6  5  2  0  0  0  0
  7  1  1  0  0  0  0
  8  6  1  0  0  0  0
 10 11  1  0  0  0  0
 11 12  1  0  0  0  0
 12 14  2  0  0  0  0
 12 13  1  0  0  0  0
 13 15  2  0  0  0  0
 14 17  1  0  0  0  0
 15 20  1  0  0  0  0
 15 19  1  0  0  0  0
 16 13  1  0  0  0  0
 17 21  1  0  0  0  0
 17 19  2  0  0  0  0
 18 14  1  0  0  0  0
 19 26  1  0  0  0  0
 22 23  2  0  0  0  0
 24 22  1  0  0  0  0
 24 25  1  0  0  0  0
 26 28  1  0  0  0  0
 26 27  2  0  0  0  0
 28 29  1  0  0  0  0
M  RAD  4   2   2   3   2  10   3  11   2
M  END
