Coordinates from ORCA-job 1g-Schema6-R11-K+-B3LYPG-6-31G_dp-scan-d49-09-n400
 OpenBabel08281819543D

 29 31  0  0  0  0  0  0  0  0999 V2000
    0.9075    2.4648    0.5513 C   0  0  0  0  0  0  0  0  0  0  0  0
    1.8974    1.4913    0.5988 C   0  0  0  0  0  0  0  0  0  0  0  0
    1.5648   -0.0021    0.6527 C   0  0  0  0  0  0  0  0  0  0  0  0
    0.1201   -0.3106    0.8956 C   0  0  0  0  0  0  0  0  0  0  0  0
   -0.8094    0.6832    0.7983 C   0  0  0  0  0  0  0  0  0  0  0  0
   -0.4191    2.0535    0.6293 C   0  0  0  0  0  0  0  0  0  0  0  0
    1.1508    3.5222    0.5184 H   0  0  0  0  0  0  0  0  0  0  0  0
   -1.2079    2.7987    0.6068 H   0  0  0  0  0  0  0  0  0  0  0  0
   -0.1796   -1.3485    1.0092 H   0  0  0  0  0  0  0  0  0  0  0  0
    1.9532   -0.8587   -0.5862 N   0  0  0  0  0  0  0  0  0  0  0  0
    2.4454   -0.6416    0.8159 N   0  0  0  0  0  0  0  0  0  0  0  0
    3.6634    0.1060    0.9072 C   0  0  0  0  0  0  0  0  0  0  0  0
    4.9651   -0.3405    1.0407 C   0  0  0  0  0  0  0  0  0  0  0  0
    3.3119    1.4836    0.7855 C   0  0  0  0  0  0  0  0  0  0  0  0
    5.9455    0.6519    1.0868 C   0  0  0  0  0  0  0  0  0  0  0  0
    5.2065   -1.3938    1.1254 H   0  0  0  0  0  0  0  0  0  0  0  0
    4.3181    2.4664    0.8389 C   0  0  0  0  0  0  0  0  0  0  0  0
    2.4944   -0.1809   -1.1513 H   0  0  0  0  0  0  0  0  0  0  0  0
    5.6304    2.0305    0.9905 C   0  0  0  0  0  0  0  0  0  0  0  0
    6.9911    0.3889    1.2113 H   0  0  0  0  0  0  0  0  0  0  0  0
    4.0945    3.5252    0.7727 H   0  0  0  0  0  0  0  0  0  0  0  0
   -2.2581    0.2889    0.9223 C   0  0  0  0  0  0  0  0  0  0  0  0
   -2.6198   -0.8536    1.0718 O   0  0  0  0  0  0  0  0  0  0  0  0
   -3.0735    1.3542    0.8500 O   0  0  0  0  0  0  0  0  0  0  0  0
   -3.9888    1.0359    0.9419 H   0  0  0  0  0  0  0  0  0  0  0  0
    6.7821    2.9930    1.0674 C   0  0  0  0  0  0  0  0  0  0  0  0
    7.9317    2.6408    1.1966 O   0  0  0  0  0  0  0  0  0  0  0  0
    6.3809    4.2731    0.9754 O   0  0  0  0  0  0  0  0  0  0  0  0
    7.1740    4.8337    1.0339 H   0  0  0  0  0  0  0  0  0  0  0  0
  1  2  2  0  0  0  0
  1  6  1  0  0  0  0
  2  3  1  0  0  0  0
  2 14  1  0  0  0  0
  3 11  1  0  0  0  0
  3  4  2  0  0  0  0
  4  9  1  0  0  0  0
  5  4  1  0  0  0  0
  5 22  1  0  0  0  0
  6  5  2  0  0  0  0
  7  1  1  0  0  0  0
  8  6  1  0  0  0  0
 10 11  1  0  0  0  0
 11 12  1  0  0  0  0
 12 13  2  0  0  0  0
 13 15  1  0  0  0  0
 13 16  1  0  0  0  0
 14 17  2  0  0  0  0
 14 12  1  0  0  0  0
 15 20  1  0  0  0  0
 17 19  1  0  0  0  0
 18 10  1  0  0  0  0
 19 26  1  0  0  0  0
 19 15  2  0  0  0  0
 21 17  1  0  0  0  0
 22 23  2  0  0  0  0
 24 22  1  0  0  0  0
 24 25  1  0  0  0  0
 26 27  2  0  0  0  0
 28 29  1  0  0  0  0
 28 26  1  0  0  0  0
M  RAD  1  10   2
M  END
