Coordinates from ORCA-job 1g-Schema6-R11-K+-B3LYPG-6-31G_dp-scan-d49-09-n400
 OpenBabel08281819543D

 29 30  0  0  0  0  0  0  0  0999 V2000
   -0.3679    1.7504   -1.6049 C   0  0  0  0  0  0  0  0  0  0  0  0
    0.4823    0.7080   -1.6730 C   0  0  0  0  0  0  0  0  0  0  0  0
    1.1604   -0.1011   -0.8746 C   0  0  0  0  0  0  0  0  0  0  0  0
    0.6871    0.0432    0.4591 C   0  0  0  0  0  0  0  0  0  0  0  0
   -0.2730    1.0183    0.7442 C   0  0  0  0  0  0  0  0  0  0  0  0
   -0.8002    1.8543   -0.2570 C   0  0  0  0  0  0  0  0  0  0  0  0
   -0.7730    2.3485   -2.4131 H   0  0  0  0  0  0  0  0  0  0  0  0
   -1.5881    2.5655   -0.0249 H   0  0  0  0  0  0  0  0  0  0  0  0
    1.0814   -0.5783    1.2588 H   0  0  0  0  0  0  0  0  0  0  0  0
    2.0566   -1.1455   -1.2715 N   0  0  0  0  0  0  0  0  0  0  0  0
    3.1014   -1.0620   -0.6959 N   0  0  0  0  0  0  0  0  0  0  0  0
    3.7409   -0.0760    0.0577 C   0  0  0  0  0  0  0  0  0  0  0  0
    4.4129   -0.4936    1.2238 C   0  0  0  0  0  0  0  0  0  0  0  0
    3.8471    1.2469   -0.4206 C   0  0  0  0  0  0  0  0  0  0  0  0
    5.1064    0.4474    1.9671 C   0  0  0  0  0  0  0  0  0  0  0  0
    4.3603   -1.5327    1.5304 H   0  0  0  0  0  0  0  0  0  0  0  0
    4.5828    2.1645    0.3169 C   0  0  0  0  0  0  0  0  0  0  0  0
    3.4020    1.5312   -1.3670 H   0  0  0  0  0  0  0  0  0  0  0  0
    5.1982    1.7748    1.5169 C   0  0  0  0  0  0  0  0  0  0  0  0
    5.6087    0.1748    2.8884 H   0  0  0  0  0  0  0  0  0  0  0  0
    4.6938    3.1832   -0.0358 H   0  0  0  0  0  0  0  0  0  0  0  0
   -0.7081    1.1261    2.1801 C   0  0  0  0  0  0  0  0  0  0  0  0
   -0.2349    0.4455    3.0610 O   0  0  0  0  0  0  0  0  0  0  0  0
   -1.6619    2.0538    2.3504 O   0  0  0  0  0  0  0  0  0  0  0  0
   -1.9017    2.0684    3.2936 H   0  0  0  0  0  0  0  0  0  0  0  0
    5.9975    2.7329    2.3491 C   0  0  0  0  0  0  0  0  0  0  0  0
    6.5296    2.4232    3.3912 O   0  0  0  0  0  0  0  0  0  0  0  0
    6.0480    3.9642    1.8075 O   0  0  0  0  0  0  0  0  0  0  0  0
    6.5843    4.5196    2.3992 H   0  0  0  0  0  0  0  0  0  0  0  0
  1  6  1  0  0  0  0
  2  1  2  0  0  0  0
  2  3  1  0  0  0  0
  3  4  2  0  0  0  0
  4  5  1  0  0  0  0
  4  9  1  0  0  0  0
  5 22  1  0  0  0  0
  6  8  1  0  0  0  0
  6  5  2  0  0  0  0
  7  1  1  0  0  0  0
 10  3  1  0  0  0  0
 10 11  1  0  0  0  0
 11 12  1  0  0  0  0
 12 13  1  0  0  0  0
 13 16  1  0  0  0  0
 13 15  2  0  0  0  0
 14 12  2  0  0  0  0
 14 17  1  0  0  0  0
 15 20  1  0  0  0  0
 17 19  2  0  0  0  0
 18 14  1  0  0  0  0
 19 15  1  0  0  0  0
 19 26  1  0  0  0  0
 21 17  1  0  0  0  0
 22 24  1  0  0  0  0
 22 23  2  0  0  0  0
 24 25  1  0  0  0  0
 26 27  2  0  0  0  0
 28 26  1  0  0  0  0
 28 29  1  0  0  0  0
M  RAD  3   2   2  10   2  11   2
M  END
