Coordinates from ORCA-job 1g-Schema6-R11-K+-B3LYPG-6-31G_dp-scan-d49-09-n400
 OpenBabel08281819543D

 29 29  0  0  0  0  0  0  0  0999 V2000
   -0.9247    1.9953   -1.7416 C   0  0  0  0  0  0  0  0  0  0  0  0
    0.3175    1.6931   -1.2407 C   0  0  0  0  0  0  0  0  0  0  0  0
    0.7470    1.3071   -0.1254 C   0  0  0  0  0  0  0  0  0  0  0  0
   -0.1418    1.1108    0.9354 C   0  0  0  0  0  0  0  0  0  0  0  0
   -1.4879    1.3791    0.5909 C   0  0  0  0  0  0  0  0  0  0  0  0
   -1.8627    1.8069   -0.7012 C   0  0  0  0  0  0  0  0  0  0  0  0
   -1.1943    2.3262   -2.7358 H   0  0  0  0  0  0  0  0  0  0  0  0
   -2.9099    2.0037   -0.9070 H   0  0  0  0  0  0  0  0  0  0  0  0
    0.1047    0.7887    1.9407 H   0  0  0  0  0  0  0  0  0  0  0  0
    2.8982   -2.0023   -0.2914 N   0  0  0  0  0  0  0  0  0  0  0  0
    3.6298   -1.2476    0.0805 N   0  0  0  0  0  0  0  0  0  0  0  0
    4.5250   -0.3068    0.5404 C   0  0  0  0  0  0  0  0  0  0  0  0
    5.7996   -0.7474    0.9570 C   0  0  0  0  0  0  0  0  0  0  0  0
    4.0992    1.0365    0.5638 C   0  0  0  0  0  0  0  0  0  0  0  0
    6.6750    0.2203    1.4174 C   0  0  0  0  0  0  0  0  0  0  0  0
    6.0718   -1.7962    0.9153 H   0  0  0  0  0  0  0  0  0  0  0  0
    5.0075    1.9744    1.0339 C   0  0  0  0  0  0  0  0  0  0  0  0
    3.0958    1.3001    0.2303 H   0  0  0  0  0  0  0  0  0  0  0  0
    6.2842    1.5706    1.4570 C   0  0  0  0  0  0  0  0  0  0  0  0
    7.6712   -0.0428    1.7553 H   0  0  0  0  0  0  0  0  0  0  0  0
    4.7310    3.0214    1.0761 H   0  0  0  0  0  0  0  0  0  0  0  0
   -2.5009    1.1836    1.6752 C   0  0  0  0  0  0  0  0  0  0  0  0
   -2.2278    0.8049    2.7949 O   0  0  0  0  0  0  0  0  0  0  0  0
   -3.7576    1.4716    1.2777 O   0  0  0  0  0  0  0  0  0  0  0  0
   -4.3365    1.3161    2.0432 H   0  0  0  0  0  0  0  0  0  0  0  0
    7.2998    2.5571    1.9755 C   0  0  0  0  0  0  0  0  0  0  0  0
    8.4027    2.2230    2.3413 O   0  0  0  0  0  0  0  0  0  0  0  0
    6.8293    3.8118    1.9764 O   0  0  0  0  0  0  0  0  0  0  0  0
    7.5271    4.3960    2.3218 H   0  0  0  0  0  0  0  0  0  0  0  0
  1  2  2  0  0  0  0
  1  6  1  0  0  0  0
  2  3  1  0  0  0  0
  3  4  2  0  0  0  0
  4  9  1  0  0  0  0
  5  4  1  0  0  0  0
  5 22  1  0  0  0  0
  6  5  2  0  0  0  0
  7  1  1  0  0  0  0
  8  6  1  0  0  0  0
 10 11  1  0  0  0  0
 11 12  1  0  0  0  0
 12 14  2  0  0  0  0
 12 13  1  0  0  0  0
 13 15  2  0  0  0  0
 14 17  1  0  0  0  0
 15 19  1  0  0  0  0
 15 20  1  0  0  0  0
 16 13  1  0  0  0  0
 17 21  1  0  0  0  0
 17 19  2  0  0  0  0
 18 14  1  0  0  0  0
 19 26  1  0  0  0  0
 22 23  2  0  0  0  0
 24 22  1  0  0  0  0
 24 25  1  0  0  0  0
 26 28  1  0  0  0  0
 26 27  2  0  0  0  0
 28 29  1  0  0  0  0
M  RAD  4   2   2   3   2  10   3  11   2
M  END
