Coordinates from ORCA-job 1g-Schema6-R11-K+-B3LYPG-6-31G_dp-scan-d49-09-n400
 OpenBabel08281819543D

 29 29  0  0  0  0  0  0  0  0999 V2000
   -0.8897    1.9986   -1.7266 C   0  0  0  0  0  0  0  0  0  0  0  0
    0.3327    1.6156   -1.2313 C   0  0  0  0  0  0  0  0  0  0  0  0
    0.7410    1.2203   -0.1115 C   0  0  0  0  0  0  0  0  0  0  0  0
   -0.1496    1.1022    0.9587 C   0  0  0  0  0  0  0  0  0  0  0  0
   -1.4759    1.4612    0.6195 C   0  0  0  0  0  0  0  0  0  0  0  0
   -1.8301    1.8939   -0.6768 C   0  0  0  0  0  0  0  0  0  0  0  0
   -1.1440    2.3306   -2.7246 H   0  0  0  0  0  0  0  0  0  0  0  0
   -2.8625    2.1598   -0.8787 H   0  0  0  0  0  0  0  0  0  0  0  0
    0.0821    0.7775    1.9665 H   0  0  0  0  0  0  0  0  0  0  0  0
    3.2184   -2.3020   -0.4072 N   0  0  0  0  0  0  0  0  0  0  0  0
    3.8609   -1.4809   -0.0116 N   0  0  0  0  0  0  0  0  0  0  0  0
    4.6508   -0.4643    0.4779 C   0  0  0  0  0  0  0  0  0  0  0  0
    5.9719   -0.7785    0.8639 C   0  0  0  0  0  0  0  0  0  0  0  0
    4.0809    0.8221    0.5605 C   0  0  0  0  0  0  0  0  0  0  0  0
    6.7431    0.2600    1.3549 C   0  0  0  0  0  0  0  0  0  0  0  0
    6.3559   -1.7888    0.7767 H   0  0  0  0  0  0  0  0  0  0  0  0
    4.8892    1.8343    1.0587 C   0  0  0  0  0  0  0  0  0  0  0  0
    3.0504    0.9969    0.2491 H   0  0  0  0  0  0  0  0  0  0  0  0
    6.2081    1.5569    1.4526 C   0  0  0  0  0  0  0  0  0  0  0  0
    7.7667    0.0942    1.6724 H   0  0  0  0  0  0  0  0  0  0  0  0
    4.5006    2.8422    1.1457 H   0  0  0  0  0  0  0  0  0  0  0  0
   -2.4908    1.3577    1.7143 C   0  0  0  0  0  0  0  0  0  0  0  0
   -2.2351    0.9873    2.8409 O   0  0  0  0  0  0  0  0  0  0  0  0
   -3.7291    1.7192    1.3183 O   0  0  0  0  0  0  0  0  0  0  0  0
   -4.3106    1.6193    2.0911 H   0  0  0  0  0  0  0  0  0  0  0  0
    7.1178    2.6277    1.9998 C   0  0  0  0  0  0  0  0  0  0  0  0
    8.2539    2.4012    2.3452 O   0  0  0  0  0  0  0  0  0  0  0  0
    6.5153    3.8236    2.0491 O   0  0  0  0  0  0  0  0  0  0  0  0
    7.1501    4.4675    2.4098 H   0  0  0  0  0  0  0  0  0  0  0  0
  1  2  2  0  0  0  0
  1  6  1  0  0  0  0
  2  3  1  0  0  0  0
  3  4  2  0  0  0  0
  4  9  1  0  0  0  0
  5  4  1  0  0  0  0
  5 22  1  0  0  0  0
  6  5  2  0  0  0  0
  7  1  1  0  0  0  0
  8  6  1  0  0  0  0
 10 11  1  0  0  0  0
 11 12  1  0  0  0  0
 12 14  2  0  0  0  0
 12 13  1  0  0  0  0
 13 15  2  0  0  0  0
 14 17  1  0  0  0  0
 15 19  1  0  0  0  0
 15 20  1  0  0  0  0
 16 13  1  0  0  0  0
 17 21  1  0  0  0  0
 17 19  2  0  0  0  0
 18 14  1  0  0  0  0
 19 26  1  0  0  0  0
 22 23  2  0  0  0  0
 24 22  1  0  0  0  0
 24 25  1  0  0  0  0
 26 28  1  0  0  0  0
 26 27  2  0  0  0  0
 28 29  1  0  0  0  0
M  RAD  4   2   2   3   2  10   3  11   2
M  END
