Coordinates from ORCA-job 1g-Schema6-R11-K+-B3LYPG-6-31G_dp-scan-d49-09-n400
 OpenBabel08281819543D

 29 31  0  0  1  0  0  0  0  0999 V2000
    1.2054    2.1686    0.3216 C   0  0  0  0  0  0  0  0  0  0  0  0
    1.9491    1.0606   -0.0218 C   0  0  0  0  0  0  0  0  0  0  0  0
    1.3459   -0.2544    0.0299 C   0  0  0  0  0  0  0  0  0  0  0  0
    0.0012   -0.3496    0.4569 C   0  0  0  0  0  0  0  0  0  0  0  0
   -0.7057    0.7715    0.8895 C   0  0  0  0  0  0  0  0  0  0  0  0
   -0.1128    2.0330    0.7969 C   0  0  0  0  0  0  0  0  0  0  0  0
    1.6565    3.1543    0.2844 H   0  0  0  0  0  0  0  0  0  0  0  0
   -0.6658    2.9112    1.1108 H   0  0  0  0  0  0  0  0  0  0  0  0
   -0.5007   -1.3128    0.4366 H   0  0  0  0  0  0  0  0  0  0  0  0
    1.8866   -1.3520   -0.5957 N   0  0  0  0  0  0  0  0  0  0  0  0
    2.8864   -1.0677    0.0510 N   0  0  0  0  0  0  0  0  0  0  0  0
    3.8729   -0.2748    0.2623 C   0  0  2  0  0  0  0  0  0  0  0  0
    4.9400   -0.4206    1.2048 C   0  0  0  0  0  0  0  0  0  0  0  0
    3.4563    1.0609   -0.3502 C   0  0  2  0  0  0  0  0  0  0  0  0
    5.6384    0.6938    1.5420 C   0  0  0  0  0  0  0  0  0  0  0  0
    5.1594   -1.3972    1.6195 H   0  0  0  0  0  0  0  0  0  0  0  0
    4.3069    2.1987    0.1324 C   0  0  0  0  0  0  0  0  0  0  0  0
    3.5438    1.0298   -1.4520 H   0  0  0  0  0  0  0  0  0  0  0  0
    5.3187    2.0110    1.0055 C   0  0  0  0  0  0  0  0  0  0  0  0
    6.4750    0.6386    2.2312 H   0  0  0  0  0  0  0  0  0  0  0  0
    4.1307    3.1757   -0.3061 H   0  0  0  0  0  0  0  0  0  0  0  0
   -2.1086    0.5602    1.3799 C   0  0  0  0  0  0  0  0  0  0  0  0
   -2.6309   -0.5296    1.4326 O   0  0  0  0  0  0  0  0  0  0  0  0
   -2.6956    1.7115    1.7469 O   0  0  0  0  0  0  0  0  0  0  0  0
   -3.5952    1.5007    2.0519 H   0  0  0  0  0  0  0  0  0  0  0  0
    6.1966    3.1392    1.4647 C   0  0  0  0  0  0  0  0  0  0  0  0
    7.1092    2.9837    2.2436 O   0  0  0  0  0  0  0  0  0  0  0  0
    5.8477    4.3187    0.9226 O   0  0  0  0  0  0  0  0  0  0  0  0
    6.4606    4.9919    1.2656 H   0  0  0  0  0  0  0  0  0  0  0  0
  1  6  2  0  0  0  0
  2  3  2  0  0  0  0
  2  1  1  0  0  0  0
  3  4  1  0  0  0  0
  4  5  2  0  0  0  0
  5 22  1  0  0  0  0
  6  5  1  0  0  0  0
  6  8  1  0  0  0  0
  7  1  1  0  0  0  0
  9  4  1  0  0  0  0
 10  3  1  0  0  0  0
 10 11  1  0  0  0  0
 12 11  1  1  0  0  0
 12 13  1  0  0  0  0
 13 15  2  0  0  0  0
 13 16  1  0  0  0  0
 14 18  1  6  0  0  0
 14  2  1  0  0  0  0
 14 17  1  0  0  0  0
 14 12  1  0  0  0  0
 15 20  1  0  0  0  0
 17 19  2  0  0  0  0
 19 26  1  0  0  0  0
 19 15  1  0  0  0  0
 21 17  1  0  0  0  0
 22 23  2  0  0  0  0
 22 24  1  0  0  0  0
 24 25  1  0  0  0  0
 26 27  2  0  0  0  0
 28 29  1  0  0  0  0
 28 26  1  0  0  0  0
M  RAD  3  10   2  11   2  12   2
M  END
