Coordinates from ORCA-job 1g-Schema6-R11-K+-B3LYPG-6-31G_dp-scan-d49-09-n400
 OpenBabel08281819543D

 29 29  0  0  0  0  0  0  0  0999 V2000
   -0.8993    1.9066   -1.7337 C   0  0  0  0  0  0  0  0  0  0  0  0
    0.3263    1.6223   -1.1830 C   0  0  0  0  0  0  0  0  0  0  0  0
    0.7141    1.2526   -0.0471 C   0  0  0  0  0  0  0  0  0  0  0  0
   -0.2111    1.0616    0.9831 C   0  0  0  0  0  0  0  0  0  0  0  0
   -1.5452    1.3136    0.5838 C   0  0  0  0  0  0  0  0  0  0  0  0
   -1.8740    1.7222   -0.7270 C   0  0  0  0  0  0  0  0  0  0  0  0
   -1.1343    2.2236   -2.7412 H   0  0  0  0  0  0  0  0  0  0  0  0
   -2.9143    1.9073   -0.9745 H   0  0  0  0  0  0  0  0  0  0  0  0
   -0.0001    0.7539    2.0009 H   0  0  0  0  0  0  0  0  0  0  0  0
    2.7054   -1.7523   -0.2072 N   0  0  0  0  0  0  0  0  0  0  0  0
    3.5032   -1.0578    0.1449 N   0  0  0  0  0  0  0  0  0  0  0  0
    4.4696   -0.1773    0.5801 C   0  0  0  0  0  0  0  0  0  0  0  0
    5.7345   -0.6931    0.9337 C   0  0  0  0  0  0  0  0  0  0  0  0
    4.1195    1.1861    0.6428 C   0  0  0  0  0  0  0  0  0  0  0  0
    6.6804    0.2178    1.3705 C   0  0  0  0  0  0  0  0  0  0  0  0
    5.9471   -1.7542    0.8639 H   0  0  0  0  0  0  0  0  0  0  0  0
    5.0963    2.0657    1.0871 C   0  0  0  0  0  0  0  0  0  0  0  0
    3.1200    1.5044    0.3537 H   0  0  0  0  0  0  0  0  0  0  0  0
    6.3662    1.5862    1.4478 C   0  0  0  0  0  0  0  0  0  0  0  0
    7.6745   -0.1046    1.6603 H   0  0  0  0  0  0  0  0  0  0  0  0
    4.8797    3.1253    1.1570 H   0  0  0  0  0  0  0  0  0  0  0  0
   -2.5975    1.1227    1.6312 C   0  0  0  0  0  0  0  0  0  0  0  0
   -2.3640    0.7602    2.7650 O   0  0  0  0  0  0  0  0  0  0  0  0
   -3.8401    1.3944    1.1819 O   0  0  0  0  0  0  0  0  0  0  0  0
   -4.4473    1.2432    1.9262 H   0  0  0  0  0  0  0  0  0  0  0  0
    7.4557    2.5071    1.9358 C   0  0  0  0  0  0  0  0  0  0  0  0
    8.5532    2.1075    2.2478 O   0  0  0  0  0  0  0  0  0  0  0  0
    7.0555    3.7854    1.9751 O   0  0  0  0  0  0  0  0  0  0  0  0
    7.7986    4.3247    2.2984 H   0  0  0  0  0  0  0  0  0  0  0  0
  1  2  2  0  0  0  0
  1  6  1  0  0  0  0
  2  3  1  0  0  0  0
  3  4  2  0  0  0  0
  4  9  1  0  0  0  0
  5  4  1  0  0  0  0
  5 22  1  0  0  0  0
  6  5  2  0  0  0  0
  7  1  1  0  0  0  0
  8  6  1  0  0  0  0
 10 11  1  0  0  0  0
 11 12  1  0  0  0  0
 12 14  2  0  0  0  0
 12 13  1  0  0  0  0
 13 15  2  0  0  0  0
 14 17  1  0  0  0  0
 15 19  1  0  0  0  0
 15 20  1  0  0  0  0
 16 13  1  0  0  0  0
 17 21  1  0  0  0  0
 17 19  2  0  0  0  0
 18 14  1  0  0  0  0
 19 26  1  0  0  0  0
 22 23  2  0  0  0  0
 24 22  1  0  0  0  0
 24 25  1  0  0  0  0
 26 28  1  0  0  0  0
 26 27  2  0  0  0  0
 28 29  1  0  0  0  0
M  RAD  4   2   2   3   2  10   3  11   2
M  END
