Coordinates from ORCA-job 1g-Schema6-R11-K+-B3LYPG-6-31G_dp-scan-d49-09-n400
 OpenBabel08281819543D

 29 32  0  0  1  0  0  0  0  0999 V2000
    0.9308    2.3554    0.3702 C   0  0  0  0  0  0  0  0  0  0  0  0
    1.8368    1.3132    0.2718 C   0  0  0  0  0  0  0  0  0  0  0  0
    1.4076   -0.0675    0.3424 C   0  0  1  0  0  0  0  0  0  0  0  0
    0.0464   -0.3626    0.7120 C   0  0  0  0  0  0  0  0  0  0  0  0
   -0.8345    0.6834    0.8320 C   0  0  0  0  0  0  0  0  0  0  0  0
   -0.4001    2.0305    0.6409 C   0  0  0  0  0  0  0  0  0  0  0  0
    1.2341    3.3938    0.2891 H   0  0  0  0  0  0  0  0  0  0  0  0
   -1.1339    2.8225    0.7451 H   0  0  0  0  0  0  0  0  0  0  0  0
   -0.2913   -1.3890    0.8161 H   0  0  0  0  0  0  0  0  0  0  0  0
    2.0655   -0.8352   -0.8219 N   0  0  0  0  0  0  0  0  0  0  0  0
    2.5394   -0.8841    0.4673 N   0  0  0  0  0  0  0  0  0  0  0  0
    3.6959   -0.0710    0.7203 C   0  0  0  0  0  0  0  0  0  0  0  0
    4.9206   -0.4087    1.2081 C   0  0  0  0  0  0  0  0  0  0  0  0
    3.3509    1.2780    0.2244 C   0  0  2  0  0  0  0  0  0  0  0  0
    5.8726    0.6346    1.2805 C   0  0  0  0  0  0  0  0  0  0  0  0
    5.1599   -1.4209    1.5152 H   0  0  0  0  0  0  0  0  0  0  0  0
    4.2957    2.3370    0.5245 C   0  0  0  0  0  0  0  0  0  0  0  0
    3.4659    0.9952   -0.8840 H   0  0  0  0  0  0  0  0  0  0  0  0
    5.5586    1.9771    0.9676 C   0  0  0  0  0  0  0  0  0  0  0  0
    6.8905    0.4249    1.5956 H   0  0  0  0  0  0  0  0  0  0  0  0
    4.0386    3.3813    0.3823 H   0  0  0  0  0  0  0  0  0  0  0  0
   -2.2633    0.3499    1.1618 C   0  0  0  0  0  0  0  0  0  0  0  0
   -2.6539   -0.7805    1.3347 O   0  0  0  0  0  0  0  0  0  0  0  0
   -3.0305    1.4503    1.2440 O   0  0  0  0  0  0  0  0  0  0  0  0
   -3.9349    1.1650    1.4626 H   0  0  0  0  0  0  0  0  0  0  0  0
    6.6463    2.9943    1.1887 C   0  0  0  0  0  0  0  0  0  0  0  0
    7.7551    2.6995    1.5675 O   0  0  0  0  0  0  0  0  0  0  0  0
    6.2299    4.2416    0.9166 O   0  0  0  0  0  0  0  0  0  0  0  0
    6.9740    4.8469    1.0818 H   0  0  0  0  0  0  0  0  0  0  0  0
  1  6  1  0  0  0  0
  2  3  1  0  0  0  0
  2  1  2  0  0  0  0
  3 10  1  6  0  0  0
  3 11  1  0  0  0  0
  3  4  1  0  0  0  0
  4  9  1  0  0  0  0
  4  5  2  0  0  0  0
  5 22  1  0  0  0  0
  6  8  1  0  0  0  0
  6  5  1  0  0  0  0
  7  1  1  0  0  0  0
 10 11  1  0  0  0  0
 11 12  1  0  0  0  0
 12 13  2  0  0  0  0
 13 15  1  0  0  0  0
 13 16  1  0  0  0  0
 14 18  1  6  0  0  0
 14  2  1  0  0  0  0
 14 17  1  0  0  0  0
 14 12  1  0  0  0  0
 15 20  1  0  0  0  0
 17 19  2  0  0  0  0
 19 26  1  0  0  0  0
 19 15  1  0  0  0  0
 21 17  1  0  0  0  0
 22 24  1  0  0  0  0
 22 23  2  0  0  0  0
 24 25  1  0  0  0  0
 26 27  2  0  0  0  0
 28 29  1  0  0  0  0
 28 26  1  0  0  0  0
M  RAD  3   6   2  10   2  15   2
M  END
