Coordinates from ORCA-job 1g-Schema6-R11-K+-B3LYPG-6-31G_dp-scan-d49-09-n400
 OpenBabel08281819543D

 29 29  0  0  0  0  0  0  0  0999 V2000
   -0.8658    1.7976   -1.7227 C   0  0  0  0  0  0  0  0  0  0  0  0
    0.3320    1.4864   -1.1260 C   0  0  0  0  0  0  0  0  0  0  0  0
    0.6651    1.1247    0.0297 C   0  0  0  0  0  0  0  0  0  0  0  0
   -0.2989    0.9770    1.0310 C   0  0  0  0  0  0  0  0  0  0  0  0
   -1.6094    1.2628    0.5802 C   0  0  0  0  0  0  0  0  0  0  0  0
   -1.8795    1.6590   -0.7479 C   0  0  0  0  0  0  0  0  0  0  0  0
   -1.0568    2.1040   -2.7428 H   0  0  0  0  0  0  0  0  0  0  0  0
   -2.9046    1.8703   -1.0348 H   0  0  0  0  0  0  0  0  0  0  0  0
   -0.1325    0.6776    2.0593 H   0  0  0  0  0  0  0  0  0  0  0  0
    2.5885   -1.5543   -0.1450 N   0  0  0  0  0  0  0  0  0  0  0  0
    3.4441   -0.9241    0.1924 N   0  0  0  0  0  0  0  0  0  0  0  0
    4.4556   -0.0864    0.6090 C   0  0  0  0  0  0  0  0  0  0  0  0
    5.7256   -0.6410    0.8697 C   0  0  0  0  0  0  0  0  0  0  0  0
    4.1400    1.2801    0.7464 C   0  0  0  0  0  0  0  0  0  0  0  0
    6.7152    0.2319    1.2883 C   0  0  0  0  0  0  0  0  0  0  0  0
    5.9099   -1.7023    0.7450 H   0  0  0  0  0  0  0  0  0  0  0  0
    5.1594    2.1211    1.1689 C   0  0  0  0  0  0  0  0  0  0  0  0
    3.1359    1.6315    0.5243 H   0  0  0  0  0  0  0  0  0  0  0  0
    6.4366    1.6017    1.4376 C   0  0  0  0  0  0  0  0  0  0  0  0
    7.7166   -0.1218    1.5079 H   0  0  0  0  0  0  0  0  0  0  0  0
    4.9711    3.1810    1.2933 H   0  0  0  0  0  0  0  0  0  0  0  0
   -2.7033    1.1219    1.5928 C   0  0  0  0  0  0  0  0  0  0  0  0
   -2.5200    0.7769    2.7409 O   0  0  0  0  0  0  0  0  0  0  0  0
   -3.9210    1.4173    1.0930 O   0  0  0  0  0  0  0  0  0  0  0  0
   -4.5590    1.2976    1.8170 H   0  0  0  0  0  0  0  0  0  0  0  0
    7.5722    2.4801    1.8977 C   0  0  0  0  0  0  0  0  0  0  0  0
    8.6765    2.0466    2.1303 O   0  0  0  0  0  0  0  0  0  0  0  0
    7.2034    3.7637    2.0103 O   0  0  0  0  0  0  0  0  0  0  0  0
    7.9756    4.2743    2.3115 H   0  0  0  0  0  0  0  0  0  0  0  0
  1  2  2  0  0  0  0
  1  6  1  0  0  0  0
  2  3  1  0  0  0  0
  3  4  2  0  0  0  0
  4  9  1  0  0  0  0
  5  4  1  0  0  0  0
  5 22  1  0  0  0  0
  6  5  2  0  0  0  0
  7  1  1  0  0  0  0
  8  6  1  0  0  0  0
 10 11  1  0  0  0  0
 11 12  1  0  0  0  0
 12 14  2  0  0  0  0
 12 13  1  0  0  0  0
 13 15  2  0  0  0  0
 14 17  1  0  0  0  0
 15 19  1  0  0  0  0
 15 20  1  0  0  0  0
 16 13  1  0  0  0  0
 17 21  1  0  0  0  0
 17 19  2  0  0  0  0
 18 14  1  0  0  0  0
 19 26  1  0  0  0  0
 22 23  2  0  0  0  0
 24 22  1  0  0  0  0
 24 25  1  0  0  0  0
 26 28  1  0  0  0  0
 26 27  2  0  0  0  0
 28 29  1  0  0  0  0
M  RAD  4   2   2   3   2  10   3  11   2
M  END
