Coordinates from ORCA-job 1g-Schema6-R11-K+-B3LYPG-6-31G_dp-scan-d49-09-n400
 OpenBabel08281819543D

 29 29  0  0  0  0  0  0  0  0999 V2000
   -0.9495    1.9805   -1.7536 C   0  0  0  0  0  0  0  0  0  0  0  0
    0.3015    1.7054   -1.2593 C   0  0  0  0  0  0  0  0  0  0  0  0
    0.7466    1.3304   -0.1463 C   0  0  0  0  0  0  0  0  0  0  0  0
   -0.1319    1.1198    0.9206 C   0  0  0  0  0  0  0  0  0  0  0  0
   -1.4854    1.3593    0.5840 C   0  0  0  0  0  0  0  0  0  0  0  0
   -1.8769    1.7758   -0.7068 C   0  0  0  0  0  0  0  0  0  0  0  0
   -1.2318    2.3037   -2.7469 H   0  0  0  0  0  0  0  0  0  0  0  0
   -2.9292    1.9511   -0.9063 H   0  0  0  0  0  0  0  0  0  0  0  0
    0.1271    0.8059    1.9254 H   0  0  0  0  0  0  0  0  0  0  0  0
    2.8234   -1.9114   -0.2887 N   0  0  0  0  0  0  0  0  0  0  0  0
    3.5752   -1.1774    0.0844 N   0  0  0  0  0  0  0  0  0  0  0  0
    4.4932   -0.2595    0.5453 C   0  0  0  0  0  0  0  0  0  0  0  0
    5.7474   -0.7349    0.9850 C   0  0  0  0  0  0  0  0  0  0  0  0
    4.1104    1.0963    0.5466 C   0  0  0  0  0  0  0  0  0  0  0  0
    6.6472    0.2098    1.4464 C   0  0  0  0  0  0  0  0  0  0  0  0
    5.9863   -1.7924    0.9598 H   0  0  0  0  0  0  0  0  0  0  0  0
    5.0417    2.0106    1.0184 C   0  0  0  0  0  0  0  0  0  0  0  0
    3.1213    1.3871    0.1966 H   0  0  0  0  0  0  0  0  0  0  0  0
    6.2991    1.5721    1.4644 C   0  0  0  0  0  0  0  0  0  0  0  0
    7.6298   -0.0808    1.8012 H   0  0  0  0  0  0  0  0  0  0  0  0
    4.7982    3.0664    1.0440 H   0  0  0  0  0  0  0  0  0  0  0  0
   -2.4873    1.1454    1.6751 C   0  0  0  0  0  0  0  0  0  0  0  0
   -2.1995    0.7717    2.7928 O   0  0  0  0  0  0  0  0  0  0  0  0
   -3.7518    1.4090    1.2859 O   0  0  0  0  0  0  0  0  0  0  0  0
   -4.3228    1.2425    2.0551 H   0  0  0  0  0  0  0  0  0  0  0  0
    7.3383    2.5324    1.9853 C   0  0  0  0  0  0  0  0  0  0  0  0
    8.4248    2.1681    2.3707 O   0  0  0  0  0  0  0  0  0  0  0  0
    6.9079    3.8012    1.9649 O   0  0  0  0  0  0  0  0  0  0  0  0
    7.6192    4.3672    2.3133 H   0  0  0  0  0  0  0  0  0  0  0  0
  1  2  2  0  0  0  0
  1  6  1  0  0  0  0
  2  3  1  0  0  0  0
  3  4  2  0  0  0  0
  4  9  1  0  0  0  0
  5  4  1  0  0  0  0
  5 22  1  0  0  0  0
  6  5  2  0  0  0  0
  7  1  1  0  0  0  0
  8  6  1  0  0  0  0
 10 11  1  0  0  0  0
 11 12  1  0  0  0  0
 12 14  2  0  0  0  0
 12 13  1  0  0  0  0
 13 15  2  0  0  0  0
 14 17  1  0  0  0  0
 15 19  1  0  0  0  0
 15 20  1  0  0  0  0
 16 13  1  0  0  0  0
 17 21  1  0  0  0  0
 17 19  2  0  0  0  0
 18 14  1  0  0  0  0
 19 26  1  0  0  0  0
 22 23  2  0  0  0  0
 24 22  1  0  0  0  0
 24 25  1  0  0  0  0
 26 27  2  0  0  0  0
 28 26  1  0  0  0  0
 28 29  1  0  0  0  0
M  RAD  4   2   2   3   2  10   3  11   2
M  END
