Coordinates from ORCA-job 1g-Schema6-R11-K+-B3LYPG-6-31G_dp-scan-d49-09-n400
 OpenBabel08281819543D

 29 30  0  0  0  0  0  0  0  0999 V2000
   -0.6556    1.5536   -1.7387 C   0  0  0  0  0  0  0  0  0  0  0  0
    0.2980    0.6016   -1.7333 C   0  0  0  0  0  0  0  0  0  0  0  0
    1.0710   -0.0324   -0.8673 C   0  0  0  0  0  0  0  0  0  0  0  0
    0.6234    0.2100    0.4615 C   0  0  0  0  0  0  0  0  0  0  0  0
   -0.4356    1.0962    0.6717 C   0  0  0  0  0  0  0  0  0  0  0  0
   -1.0757    1.7503   -0.3975 C   0  0  0  0  0  0  0  0  0  0  0  0
   -1.1534    2.0011   -2.5912 H   0  0  0  0  0  0  0  0  0  0  0  0
   -1.9499    2.3702   -0.2201 H   0  0  0  0  0  0  0  0  0  0  0  0
    1.1311   -0.2432    1.3085 H   0  0  0  0  0  0  0  0  0  0  0  0
    2.0946   -1.0602   -1.1699 N   0  0  0  0  0  0  0  0  0  0  0  0
    3.1710   -1.0455   -0.6301 N   0  0  0  0  0  0  0  0  0  0  0  0
    3.8627   -0.0799    0.1135 C   0  0  0  0  0  0  0  0  0  0  0  0
    4.7157   -0.5649    1.1226 C   0  0  0  0  0  0  0  0  0  0  0  0
    3.8066    1.2914   -0.2100 C   0  0  0  0  0  0  0  0  0  0  0  0
    5.4461    0.3424    1.8748 C   0  0  0  0  0  0  0  0  0  0  0  0
    4.7720   -1.6324    1.3066 H   0  0  0  0  0  0  0  0  0  0  0  0
    4.5760    2.1801    0.5273 C   0  0  0  0  0  0  0  0  0  0  0  0
    3.2106    1.6428   -1.0444 H   0  0  0  0  0  0  0  0  0  0  0  0
    5.3817    1.7123    1.5787 C   0  0  0  0  0  0  0  0  0  0  0  0
    6.0923    0.0135    2.6811 H   0  0  0  0  0  0  0  0  0  0  0  0
    4.5672    3.2376    0.2896 H   0  0  0  0  0  0  0  0  0  0  0  0
   -0.8422    1.3253    2.1019 C   0  0  0  0  0  0  0  0  0  0  0  0
   -0.2663    0.8177    3.0366 O   0  0  0  0  0  0  0  0  0  0  0  0
   -1.8985    2.1465    2.2010 O   0  0  0  0  0  0  0  0  0  0  0  0
   -2.1124    2.2475    3.1451 H   0  0  0  0  0  0  0  0  0  0  0  0
    6.2244    2.6383    2.4065 C   0  0  0  0  0  0  0  0  0  0  0  0
    6.9236    2.2616    3.3196 O   0  0  0  0  0  0  0  0  0  0  0  0
    6.1090    3.9218    2.0180 O   0  0  0  0  0  0  0  0  0  0  0  0
    6.6853    4.4521    2.5949 H   0  0  0  0  0  0  0  0  0  0  0  0
  1  2  2  0  0  0  0
  1  6  1  0  0  0  0
  2  3  1  0  0  0  0
  3  4  2  0  0  0  0
  4  5  1  0  0  0  0
  4  9  1  0  0  0  0
  5 22  1  0  0  0  0
  6  8  1  0  0  0  0
  6  5  2  0  0  0  0
  7  1  1  0  0  0  0
 10  3  1  0  0  0  0
 10 11  2  0  0  0  0
 11 12  1  0  0  0  0
 12 13  1  0  0  0  0
 13 16  1  0  0  0  0
 13 15  2  0  0  0  0
 14 12  2  0  0  0  0
 14 17  1  0  0  0  0
 15 20  1  0  0  0  0
 17 19  2  0  0  0  0
 18 14  1  0  0  0  0
 19 15  1  0  0  0  0
 19 26  1  0  0  0  0
 21 17  1  0  0  0  0
 22 24  1  0  0  0  0
 22 23  2  0  0  0  0
 24 25  1  0  0  0  0
 26 27  2  0  0  0  0
 28 26  1  0  0  0  0
 28 29  1  0  0  0  0
M  RAD  1   2   2
M  END
