Coordinates from ORCA-job 1g-Schema6-R11-K+-B3LYPG-6-31G_dp-scan-d49-09-n400
 OpenBabel08281819543D

 29 32  0  0  1  0  0  0  0  0999 V2000
    1.1106    2.2345    0.2783 C   0  0  0  0  0  0  0  0  0  0  0  0
    1.8998    1.1329    0.0077 C   0  0  0  0  0  0  0  0  0  0  0  0
    1.3275   -0.1977    0.0579 C   0  0  1  0  0  0  0  0  0  0  0  0
   -0.0075   -0.3653    0.5145 C   0  0  0  0  0  0  0  0  0  0  0  0
   -0.7529    0.7504    0.8583 C   0  0  0  0  0  0  0  0  0  0  0  0
   -0.2115    2.0445    0.7042 C   0  0  0  0  0  0  0  0  0  0  0  0
    1.5181    3.2387    0.2341 H   0  0  0  0  0  0  0  0  0  0  0  0
   -0.8249    2.9029    0.9544 H   0  0  0  0  0  0  0  0  0  0  0  0
   -0.4605   -1.3510    0.5497 H   0  0  0  0  0  0  0  0  0  0  0  0
    1.9912   -1.1842   -0.7560 N   0  0  0  0  0  0  0  0  0  0  0  0
    2.7318   -1.0354    0.2923 N   0  0  1  0  0  0  0  0  0  0  0  0
    3.8244   -0.2399    0.4365 C   0  0  2  0  0  0  0  0  0  0  0  0
    4.9678   -0.4305    1.2136 C   0  0  0  0  0  0  0  0  0  0  0  0
    3.4262    1.0843   -0.1588 C   0  0  2  0  0  0  0  0  0  0  0  0
    5.7756    0.6685    1.4265 C   0  0  0  0  0  0  0  0  0  0  0  0
    5.2222   -1.4118    1.5985 H   0  0  0  0  0  0  0  0  0  0  0  0
    4.2687    2.2229    0.2853 C   0  0  0  0  0  0  0  0  0  0  0  0
    3.5875    0.9448   -1.2581 H   0  0  0  0  0  0  0  0  0  0  0  0
    5.4095    1.9935    0.9910 C   0  0  0  0  0  0  0  0  0  0  0  0
    6.7172    0.5704    1.9573 H   0  0  0  0  0  0  0  0  0  0  0  0
    3.9874    3.2327    0.0063 H   0  0  0  0  0  0  0  0  0  0  0  0
   -2.1607    0.5189    1.3335 C   0  0  0  0  0  0  0  0  0  0  0  0
   -2.6426   -0.5834    1.4524 O   0  0  0  0  0  0  0  0  0  0  0  0
   -2.7967    1.6700    1.6080 O   0  0  0  0  0  0  0  0  0  0  0  0
   -3.6944    1.4477    1.9106 H   0  0  0  0  0  0  0  0  0  0  0  0
    6.3410    3.1043    1.3899 C   0  0  0  0  0  0  0  0  0  0  0  0
    7.3646    2.9121    2.0040 O   0  0  0  0  0  0  0  0  0  0  0  0
    5.9018    4.3084    0.9873 O   0  0  0  0  0  0  0  0  0  0  0  0
    6.5515    4.9720    1.2778 H   0  0  0  0  0  0  0  0  0  0  0  0
  1  6  1  0  0  0  0
  2  3  1  0  0  0  0
  2  1  2  0  0  0  0
  3 10  1  6  0  0  0
  3 11  1  0  0  0  0
  3  4  1  0  0  0  0
  4  9  1  0  0  0  0
  4  5  2  0  0  0  0
  5 22  1  0  0  0  0
  6  5  1  0  0  0  0
  6  8  1  0  0  0  0
  7  1  1  0  0  0  0
 11 10  1  6  0  0  0
 11 12  1  0  0  0  0
 12 13  1  1  0  0  0
 13 15  2  0  0  0  0
 13 16  1  0  0  0  0
 14 18  1  6  0  0  0
 14  2  1  0  0  0  0
 14 17  1  0  0  0  0
 14 12  1  0  0  0  0
 15 20  1  0  0  0  0
 17 19  2  0  0  0  0
 19 26  1  0  0  0  0
 19 15  1  0  0  0  0
 21 17  1  0  0  0  0
 22 23  2  0  0  0  0
 22 24  1  0  0  0  0
 24 25  1  0  0  0  0
 26 27  2  0  0  0  0
 28 29  1  0  0  0  0
 28 26  1  0  0  0  0
M  RAD  3   6   2  10   2  12   2
M  END
