Coordinates from ORCA-job 1g-Schema6-R11-K+-B3LYPG-6-31G_dp-scan-d49-09-n400
 OpenBabel08281819543D

 29 30  0  0  0  0  0  0  0  0999 V2000
   -0.7722    1.5134   -1.8104 C   0  0  0  0  0  0  0  0  0  0  0  0
    0.2682    0.6595   -1.6713 C   0  0  0  0  0  0  0  0  0  0  0  0
    0.9354    0.0829   -0.7246 C   0  0  0  0  0  0  0  0  0  0  0  0
    0.3762    0.2881    0.5541 C   0  0  0  0  0  0  0  0  0  0  0  0
   -0.7555    1.1164    0.6292 C   0  0  0  0  0  0  0  0  0  0  0  0
   -1.3230    1.7051   -0.5163 C   0  0  0  0  0  0  0  0  0  0  0  0
   -1.1941    1.9365   -2.7134 H   0  0  0  0  0  0  0  0  0  0  0  0
   -2.2260    2.3023   -0.4309 H   0  0  0  0  0  0  0  0  0  0  0  0
    0.8023   -0.1412    1.4565 H   0  0  0  0  0  0  0  0  0  0  0  0
    2.1559   -1.1194   -0.9219 N   0  0  0  0  0  0  0  0  0  0  0  0
    3.2234   -0.9908   -0.4335 N   0  0  0  0  0  0  0  0  0  0  0  0
    4.0184   -0.0546    0.2365 C   0  0  0  0  0  0  0  0  0  0  0  0
    5.0495   -0.5763    1.0369 C   0  0  0  0  0  0  0  0  0  0  0  0
    3.8342    1.3302    0.0593 C   0  0  0  0  0  0  0  0  0  0  0  0
    5.8728    0.3078    1.7190 C   0  0  0  0  0  0  0  0  0  0  0  0
    5.1753   -1.6505    1.1184 H   0  0  0  0  0  0  0  0  0  0  0  0
    4.6855    2.1966    0.7298 C   0  0  0  0  0  0  0  0  0  0  0  0
    3.0647    1.7093   -0.6021 H   0  0  0  0  0  0  0  0  0  0  0  0
    5.6949    1.6898    1.5657 C   0  0  0  0  0  0  0  0  0  0  0  0
    6.6697   -0.0476    2.3627 H   0  0  0  0  0  0  0  0  0  0  0  0
    4.5790    3.2685    0.6082 H   0  0  0  0  0  0  0  0  0  0  0  0
   -1.3239    1.3455    2.0017 C   0  0  0  0  0  0  0  0  0  0  0  0
   -0.8254    0.8896    3.0055 O   0  0  0  0  0  0  0  0  0  0  0  0
   -2.4302    2.1067    1.9746 O   0  0  0  0  0  0  0  0  0  0  0  0
   -2.7422    2.2080    2.8907 H   0  0  0  0  0  0  0  0  0  0  0  0
    6.6340    2.5931    2.3142 C   0  0  0  0  0  0  0  0  0  0  0  0
    7.5092    2.1816    3.0410 O   0  0  0  0  0  0  0  0  0  0  0  0
    6.3853    3.8945    2.0824 O   0  0  0  0  0  0  0  0  0  0  0  0
    7.0311    4.4104    2.5954 H   0  0  0  0  0  0  0  0  0  0  0  0
  1  2  2  0  0  0  0
  1  6  1  0  0  0  0
  2  3  1  0  0  0  0
  3  4  2  0  0  0  0
  4  5  1  0  0  0  0
  4  9  1  0  0  0  0
  5 22  1  0  0  0  0
  6  8  1  0  0  0  0
  6  5  2  0  0  0  0
  7  1  1  0  0  0  0
 10  3  1  0  0  0  0
 10 11  2  0  0  0  0
 11 12  1  0  0  0  0
 12 13  1  0  0  0  0
 13 16  1  0  0  0  0
 13 15  2  0  0  0  0
 14 12  2  0  0  0  0
 14 17  1  0  0  0  0
 15 20  1  0  0  0  0
 17 19  2  0  0  0  0
 18 14  1  0  0  0  0
 19 15  1  0  0  0  0
 19 26  1  0  0  0  0
 21 17  1  0  0  0  0
 22 23  2  0  0  0  0
 24 22  1  0  0  0  0
 24 25  1  0  0  0  0
 26 27  2  0  0  0  0
 28 26  1  0  0  0  0
 28 29  1  0  0  0  0
M  RAD  1   2   2
M  END
