Coordinates from ORCA-job 1g-Schema6-R11-K+-B3LYPG-6-31G_dp-scan-d49-09-n400
 OpenBabel08281819543D

 29 29  0  0  0  0  0  0  0  0999 V2000
   -0.8631    1.8480   -1.7177 C   0  0  0  0  0  0  0  0  0  0  0  0
    0.3392    1.5177   -1.1407 C   0  0  0  0  0  0  0  0  0  0  0  0
    0.6840    1.1402    0.0063 C   0  0  0  0  0  0  0  0  0  0  0  0
   -0.2680    0.9902    1.0183 C   0  0  0  0  0  0  0  0  0  0  0  0
   -1.5818    1.2931    0.5882 C   0  0  0  0  0  0  0  0  0  0  0  0
   -1.8655    1.7072   -0.7316 C   0  0  0  0  0  0  0  0  0  0  0  0
   -1.0644    2.1679   -2.7316 H   0  0  0  0  0  0  0  0  0  0  0  0
   -2.8923    1.9306   -1.0027 H   0  0  0  0  0  0  0  0  0  0  0  0
   -0.0909    0.6786    2.0412 H   0  0  0  0  0  0  0  0  0  0  0  0
    2.6852   -1.7009   -0.1854 N   0  0  0  0  0  0  0  0  0  0  0  0
    3.5016   -1.0248    0.1596 N   0  0  0  0  0  0  0  0  0  0  0  0
    4.4791   -0.1528    0.5869 C   0  0  0  0  0  0  0  0  0  0  0  0
    5.7577   -0.6704    0.8824 C   0  0  0  0  0  0  0  0  0  0  0  0
    4.1245    1.2066    0.7000 C   0  0  0  0  0  0  0  0  0  0  0  0
    6.7137    0.2336    1.3120 C   0  0  0  0  0  0  0  0  0  0  0  0
    5.9730   -1.7277    0.7754 H   0  0  0  0  0  0  0  0  0  0  0  0
    5.1116    2.0792    1.1348 C   0  0  0  0  0  0  0  0  0  0  0  0
    3.1153    1.5275    0.4525 H   0  0  0  0  0  0  0  0  0  0  0  0
    6.3956    1.5973    1.4381 C   0  0  0  0  0  0  0  0  0  0  0  0
    7.7188   -0.0907    1.5582 H   0  0  0  0  0  0  0  0  0  0  0  0
    4.8926    3.1351    1.2418 H   0  0  0  0  0  0  0  0  0  0  0  0
   -2.6635    1.1505    1.6133 C   0  0  0  0  0  0  0  0  0  0  0  0
   -2.4684    0.7922    2.7555 O   0  0  0  0  0  0  0  0  0  0  0  0
   -3.8852    1.4614    1.1328 O   0  0  0  0  0  0  0  0  0  0  0  0
   -4.5142    1.3395    1.8642 H   0  0  0  0  0  0  0  0  0  0  0  0
    7.4968    2.5110    1.9133 C   0  0  0  0  0  0  0  0  0  0  0  0
    8.6063    2.1095    2.1767 O   0  0  0  0  0  0  0  0  0  0  0  0
    7.0918    3.7854    2.0014 O   0  0  0  0  0  0  0  0  0  0  0  0
    7.8429    4.3201    2.3139 H   0  0  0  0  0  0  0  0  0  0  0  0
  1  2  2  0  0  0  0
  1  6  1  0  0  0  0
  2  3  1  0  0  0  0
  3  4  2  0  0  0  0
  4  9  1  0  0  0  0
  5  4  1  0  0  0  0
  5 22  1  0  0  0  0
  6  5  2  0  0  0  0
  7  1  1  0  0  0  0
  8  6  1  0  0  0  0
 10 11  1  0  0  0  0
 11 12  1  0  0  0  0
 12 14  2  0  0  0  0
 12 13  1  0  0  0  0
 13 15  2  0  0  0  0
 14 17  1  0  0  0  0
 15 19  1  0  0  0  0
 15 20  1  0  0  0  0
 16 13  1  0  0  0  0
 17 21  1  0  0  0  0
 17 19  2  0  0  0  0
 18 14  1  0  0  0  0
 19 26  1  0  0  0  0
 22 23  2  0  0  0  0
 24 22  1  0  0  0  0
 24 25  1  0  0  0  0
 26 28  1  0  0  0  0
 26 27  2  0  0  0  0
 28 29  1  0  0  0  0
M  RAD  4   2   2   3   2  10   3  11   2
M  END
