Coordinates from ORCA-job 1g-Schema6-R11-K+-B3LYPG-6-31G_dp-scan-d49-09-n400
 OpenBabel08281819543D

 29 30  0  0  0  0  0  0  0  0999 V2000
   -0.6453    1.5604   -1.7336 C   0  0  0  0  0  0  0  0  0  0  0  0
    0.3039    0.6041   -1.7331 C   0  0  0  0  0  0  0  0  0  0  0  0
    1.0767   -0.0364   -0.8711 C   0  0  0  0  0  0  0  0  0  0  0  0
    0.6317    0.2034    0.4593 C   0  0  0  0  0  0  0  0  0  0  0  0
   -0.4230    1.0933    0.6746 C   0  0  0  0  0  0  0  0  0  0  0  0
   -1.0620    1.7544   -0.3910 C   0  0  0  0  0  0  0  0  0  0  0  0
   -1.1425    2.0133   -2.5837 H   0  0  0  0  0  0  0  0  0  0  0  0
   -1.9330    2.3777   -0.2098 H   0  0  0  0  0  0  0  0  0  0  0  0
    1.1381   -0.2558    1.3038 H   0  0  0  0  0  0  0  0  0  0  0  0
    2.0928   -1.0632   -1.1791 N   0  0  0  0  0  0  0  0  0  0  0  0
    3.1670   -1.0468   -0.6359 N   0  0  0  0  0  0  0  0  0  0  0  0
    3.8552   -0.0803    0.1094 C   0  0  0  0  0  0  0  0  0  0  0  0
    4.6983   -0.5627    1.1281 C   0  0  0  0  0  0  0  0  0  0  0  0
    3.8072    1.2895   -0.2222 C   0  0  0  0  0  0  0  0  0  0  0  0
    5.4256    0.3461    1.8814 C   0  0  0  0  0  0  0  0  0  0  0  0
    4.7495   -1.6293    1.3182 H   0  0  0  0  0  0  0  0  0  0  0  0
    4.5738    2.1795    0.5165 C   0  0  0  0  0  0  0  0  0  0  0  0
    3.2198    1.6383   -1.0638 H   0  0  0  0  0  0  0  0  0  0  0  0
    5.3688    1.7146    1.5773 C   0  0  0  0  0  0  0  0  0  0  0  0
    6.0638    0.0193    2.6948 H   0  0  0  0  0  0  0  0  0  0  0  0
    4.5710    3.2355    0.2726 H   0  0  0  0  0  0  0  0  0  0  0  0
   -0.8264    1.3185    2.1064 C   0  0  0  0  0  0  0  0  0  0  0  0
   -0.2509    0.8052    3.0381 O   0  0  0  0  0  0  0  0  0  0  0  0
   -1.8783    2.1446    2.2104 O   0  0  0  0  0  0  0  0  0  0  0  0
   -2.0901    2.2432    3.1552 H   0  0  0  0  0  0  0  0  0  0  0  0
    6.2080    2.6421    2.4068 C   0  0  0  0  0  0  0  0  0  0  0  0
    6.8978    2.2680    3.3281 O   0  0  0  0  0  0  0  0  0  0  0  0
    6.1008    3.9238    2.0102 O   0  0  0  0  0  0  0  0  0  0  0  0
    6.6742    4.4552    2.5891 H   0  0  0  0  0  0  0  0  0  0  0  0
  1  2  2  0  0  0  0
  1  6  1  0  0  0  0
  2  3  1  0  0  0  0
  3  4  2  0  0  0  0
  4  5  1  0  0  0  0
  4  9  1  0  0  0  0
  5 22  1  0  0  0  0
  6  8  1  0  0  0  0
  6  5  2  0  0  0  0
  7  1  1  0  0  0  0
 10  3  1  0  0  0  0
 10 11  2  0  0  0  0
 11 12  1  0  0  0  0
 12 13  1  0  0  0  0
 13 16  1  0  0  0  0
 13 15  2  0  0  0  0
 14 12  2  0  0  0  0
 14 17  1  0  0  0  0
 15 20  1  0  0  0  0
 17 19  2  0  0  0  0
 18 14  1  0  0  0  0
 19 15  1  0  0  0  0
 19 26  1  0  0  0  0
 21 17  1  0  0  0  0
 22 24  1  0  0  0  0
 22 23  2  0  0  0  0
 24 25  1  0  0  0  0
 26 27  2  0  0  0  0
 28 26  1  0  0  0  0
 28 29  1  0  0  0  0
M  RAD  1   2   2
M  END
