Coordinates from ORCA-job 1g-Schema6-R11-K+-B3LYPG-6-31G_dp-scan-d49-09-n400
 OpenBabel08281819543D

 29 30  0  0  0  0  0  0  0  0999 V2000
   -0.6346    1.5675   -1.7284 C   0  0  0  0  0  0  0  0  0  0  0  0
    0.3100    0.6066   -1.7328 C   0  0  0  0  0  0  0  0  0  0  0  0
    1.0823   -0.0405   -0.8749 C   0  0  0  0  0  0  0  0  0  0  0  0
    0.6401    0.1968    0.4571 C   0  0  0  0  0  0  0  0  0  0  0  0
   -0.4099    1.0908    0.6776 C   0  0  0  0  0  0  0  0  0  0  0  0
   -1.0478    1.7588   -0.3843 C   0  0  0  0  0  0  0  0  0  0  0  0
   -1.1311    2.0256   -2.5761 H   0  0  0  0  0  0  0  0  0  0  0  0
   -1.9154    2.3858   -0.1993 H   0  0  0  0  0  0  0  0  0  0  0  0
    1.1451   -0.2684    1.2992 H   0  0  0  0  0  0  0  0  0  0  0  0
    2.0911   -1.0666   -1.1883 N   0  0  0  0  0  0  0  0  0  0  0  0
    3.1630   -1.0482   -0.6417 N   0  0  0  0  0  0  0  0  0  0  0  0
    3.8475   -0.0806    0.1054 C   0  0  0  0  0  0  0  0  0  0  0  0
    4.6806   -0.5604    1.1336 C   0  0  0  0  0  0  0  0  0  0  0  0
    3.8076    1.2874   -0.2344 C   0  0  0  0  0  0  0  0  0  0  0  0
    5.4046    0.3499    1.8880 C   0  0  0  0  0  0  0  0  0  0  0  0
    4.7267   -1.6262    1.3300 H   0  0  0  0  0  0  0  0  0  0  0  0
    4.5714    2.1787    0.5057 C   0  0  0  0  0  0  0  0  0  0  0  0
    3.2290    1.6336   -1.0831 H   0  0  0  0  0  0  0  0  0  0  0  0
    5.3556    1.7170    1.5758 C   0  0  0  0  0  0  0  0  0  0  0  0
    6.0348    0.0254    2.7086 H   0  0  0  0  0  0  0  0  0  0  0  0
    4.5747    3.2333    0.2557 H   0  0  0  0  0  0  0  0  0  0  0  0
   -0.8099    1.3122    2.1109 C   0  0  0  0  0  0  0  0  0  0  0  0
   -0.2356    0.7920    3.0396 O   0  0  0  0  0  0  0  0  0  0  0  0
   -1.8581    2.1423    2.2199 O   0  0  0  0  0  0  0  0  0  0  0  0
   -2.0683    2.2378    3.1654 H   0  0  0  0  0  0  0  0  0  0  0  0
    6.1913    2.6460    2.4071 C   0  0  0  0  0  0  0  0  0  0  0  0
    6.8717    2.2746    3.3364 O   0  0  0  0  0  0  0  0  0  0  0  0
    6.0927    3.9258    2.0020 O   0  0  0  0  0  0  0  0  0  0  0  0
    6.6634    4.4582    2.5826 H   0  0  0  0  0  0  0  0  0  0  0  0
  1  6  1  0  0  0  0
  2  1  2  0  0  0  0
  2  3  1  0  0  0  0
  3  4  2  0  0  0  0
  4  5  1  0  0  0  0
  4  9  1  0  0  0  0
  5 22  1  0  0  0  0
  6  8  1  0  0  0  0
  6  5  2  0  0  0  0
  7  1  1  0  0  0  0
 10  3  1  0  0  0  0
 10 11  1  0  0  0  0
 11 12  1  0  0  0  0
 12 13  1  0  0  0  0
 13 16  1  0  0  0  0
 13 15  2  0  0  0  0
 14 12  2  0  0  0  0
 14 17  1  0  0  0  0
 15 20  1  0  0  0  0
 17 19  2  0  0  0  0
 18 14  1  0  0  0  0
 19 15  1  0  0  0  0
 19 26  1  0  0  0  0
 21 17  1  0  0  0  0
 22 24  1  0  0  0  0
 22 23  2  0  0  0  0
 24 25  1  0  0  0  0
 26 27  2  0  0  0  0
 28 26  1  0  0  0  0
 28 29  1  0  0  0  0
M  RAD  3   2   2  10   2  11   2
M  END
