Coordinates from ORCA-job 1g-Schema6-R11-K+-B3LYPG-6-31G_dp-scan-d49-09-n400
 OpenBabel08281819543D

 29 29  0  0  0  0  0  0  0  0999 V2000
   -0.9711    1.5670   -1.7977 C   0  0  0  0  0  0  0  0  0  0  0  0
    0.1609    1.0099   -1.2606 C   0  0  0  0  0  0  0  0  0  0  0  0
    0.4822    0.5729   -0.1251 C   0  0  0  0  0  0  0  0  0  0  0  0
   -0.4473    0.6039    0.9191 C   0  0  0  0  0  0  0  0  0  0  0  0
   -1.6914    1.1599    0.5396 C   0  0  0  0  0  0  0  0  0  0  0  0
   -1.9421    1.6219   -0.7706 C   0  0  0  0  0  0  0  0  0  0  0  0
   -1.1461    1.9174   -2.8063 H   0  0  0  0  0  0  0  0  0  0  0  0
   -2.9168    2.0372   -1.0051 H   0  0  0  0  0  0  0  0  0  0  0  0
   -0.2972    0.2517    1.9332 H   0  0  0  0  0  0  0  0  0  0  0  0
    2.5068   -1.2754   -0.1377 N   0  0  0  0  0  0  0  0  0  0  0  0
    3.4502   -0.7751    0.1995 N   0  0  0  0  0  0  0  0  0  0  0  0
    4.4923    0.0238    0.6240 C   0  0  0  0  0  0  0  0  0  0  0  0
    5.7611   -0.5535    0.8167 C   0  0  0  0  0  0  0  0  0  0  0  0
    4.2018    1.3856    0.8390 C   0  0  0  0  0  0  0  0  0  0  0  0
    6.7768    0.2861    1.2452 C   0  0  0  0  0  0  0  0  0  0  0  0
    5.9271   -1.6093    0.6342 H   0  0  0  0  0  0  0  0  0  0  0  0
    5.2430    2.1952    1.2686 C   0  0  0  0  0  0  0  0  0  0  0  0
    3.1995    1.7651    0.6690 H   0  0  0  0  0  0  0  0  0  0  0  0
    6.5217    1.6489    1.4700 C   0  0  0  0  0  0  0  0  0  0  0  0
    7.7799   -0.0895    1.4147 H   0  0  0  0  0  0  0  0  0  0  0  0
    5.0724    3.2496    1.4511 H   0  0  0  0  0  0  0  0  0  0  0  0
   -2.7380    1.2320    1.6088 C   0  0  0  0  0  0  0  0  0  0  0  0
   -2.5610    0.8639    2.7502 O   0  0  0  0  0  0  0  0  0  0  0  0
   -3.9013    1.7515    1.1665 O   0  0  0  0  0  0  0  0  0  0  0  0
   -4.5144    1.7556    1.9215 H   0  0  0  0  0  0  0  0  0  0  0  0
    7.6817    2.4913    1.9347 C   0  0  0  0  0  0  0  0  0  0  0  0
    8.7880    2.0370    2.1107 O   0  0  0  0  0  0  0  0  0  0  0  0
    7.3326    3.7726    2.1218 O   0  0  0  0  0  0  0  0  0  0  0  0
    8.1212    4.2579    2.4219 H   0  0  0  0  0  0  0  0  0  0  0  0
  1  2  2  0  0  0  0
  1  6  1  0  0  0  0
  2  3  1  0  0  0  0
  3  4  2  0  0  0  0
  4  9  1  0  0  0  0
  5  4  1  0  0  0  0
  5 22  1  0  0  0  0
  6  5  2  0  0  0  0
  7  1  1  0  0  0  0
  8  6  1  0  0  0  0
 10 11  1  0  0  0  0
 11 12  1  0  0  0  0
 12 13  2  0  0  0  0
 12 14  1  0  0  0  0
 13 15  1  0  0  0  0
 14 17  2  0  0  0  0
 15 20  1  0  0  0  0
 15 19  2  0  0  0  0
 16 13  1  0  0  0  0
 17 21  1  0  0  0  0
 17 19  1  0  0  0  0
 18 14  1  0  0  0  0
 19 26  1  0  0  0  0
 22 23  2  0  0  0  0
 24 22  1  0  0  0  0
 24 25  1  0  0  0  0
 26 27  2  0  0  0  0
 26 28  1  0  0  0  0
 28 29  1  0  0  0  0
M  RAD  4   2   2   3   2  10   3  11   2
M  END
