Coordinates from ORCA-job 1g-Schema6-R11-K+-B3LYPG-6-31G_dp-scan-d49-09-n400
 OpenBabel08281819543D

 29 32  0  0  1  0  0  0  0  0999 V2000
    0.9269    2.3581    0.3740 C   0  0  0  0  0  0  0  0  0  0  0  0
    1.8355    1.3177    0.2801 C   0  0  0  0  0  0  0  0  0  0  0  0
    1.4107   -0.0649    0.3527 C   0  0  1  0  0  0  0  0  0  0  0  0
    0.0481   -0.3619    0.7179 C   0  0  0  0  0  0  0  0  0  0  0  0
   -0.8359    0.6819    0.8316 C   0  0  0  0  0  0  0  0  0  0  0  0
   -0.4039    2.0299    0.6404 C   0  0  0  0  0  0  0  0  0  0  0  0
    1.2280    3.3970    0.2922 H   0  0  0  0  0  0  0  0  0  0  0  0
   -1.1403    2.8202    0.7407 H   0  0  0  0  0  0  0  0  0  0  0  0
   -0.2874   -1.3889    0.8229 H   0  0  0  0  0  0  0  0  0  0  0  0
    2.0650   -0.8278   -0.8193 N   0  0  0  0  0  0  0  0  0  0  0  0
    2.5341   -0.8766    0.4736 N   0  0  0  0  0  0  0  0  0  0  0  0
    3.6931   -0.0669    0.7271 C   0  0  0  0  0  0  0  0  0  0  0  0
    4.9201   -0.4083    1.2062 C   0  0  0  0  0  0  0  0  0  0  0  0
    3.3492    1.2833    0.2344 C   0  0  2  0  0  0  0  0  0  0  0  0
    5.8742    0.6334    1.2761 C   0  0  0  0  0  0  0  0  0  0  0  0
    5.1593   -1.4216    1.5096 H   0  0  0  0  0  0  0  0  0  0  0  0
    4.2969    2.3401    0.5305 C   0  0  0  0  0  0  0  0  0  0  0  0
    3.4616    0.9973   -0.8743 H   0  0  0  0  0  0  0  0  0  0  0  0
    5.5615    1.9767    0.9668 C   0  0  0  0  0  0  0  0  0  0  0  0
    6.8931    0.4213    1.5864 H   0  0  0  0  0  0  0  0  0  0  0  0
    4.0412    3.3851    0.3912 H   0  0  0  0  0  0  0  0  0  0  0  0
   -2.2652    0.3456    1.1560 C   0  0  0  0  0  0  0  0  0  0  0  0
   -2.6540   -0.7854    1.3291 O   0  0  0  0  0  0  0  0  0  0  0  0
   -3.0354    1.4443    1.2331 O   0  0  0  0  0  0  0  0  0  0  0  0
   -3.9400    1.1573    1.4484 H   0  0  0  0  0  0  0  0  0  0  0  0
    6.6523    2.9914    1.1841 C   0  0  0  0  0  0  0  0  0  0  0  0
    7.7626    2.6939    1.5563 O   0  0  0  0  0  0  0  0  0  0  0  0
    6.2375    4.2397    0.9140 O   0  0  0  0  0  0  0  0  0  0  0  0
    6.9839    4.8432    1.0754 H   0  0  0  0  0  0  0  0  0  0  0  0
  1  6  1  0  0  0  0
  2  3  1  0  0  0  0
  2  1  2  0  0  0  0
  3 10  1  6  0  0  0
  3 11  1  0  0  0  0
  3  4  1  0  0  0  0
  4  9  1  0  0  0  0
  4  5  2  0  0  0  0
  5 22  1  0  0  0  0
  6  8  1  0  0  0  0
  6  5  1  0  0  0  0
  7  1  1  0  0  0  0
 10 11  1  0  0  0  0
 11 12  1  0  0  0  0
 12 13  2  0  0  0  0
 13 15  1  0  0  0  0
 13 16  1  0  0  0  0
 14 18  1  6  0  0  0
 14  2  1  0  0  0  0
 14 17  1  0  0  0  0
 14 12  1  0  0  0  0
 15 20  1  0  0  0  0
 17 19  2  0  0  0  0
 19 26  1  0  0  0  0
 19 15  1  0  0  0  0
 21 17  1  0  0  0  0
 22 24  1  0  0  0  0
 22 23  2  0  0  0  0
 24 25  1  0  0  0  0
 26 27  2  0  0  0  0
 28 29  1  0  0  0  0
 28 26  1  0  0  0  0
M  RAD  3   6   2  10   2  15   2
M  END
