Coordinates from ORCA-job 1g-Schema6-R11-K+-B3LYPG-6-31G_dp-scan-d49-09-n400
 OpenBabel08281819543D

 29 30  0  0  0  0  0  0  0  0999 V2000
   -0.7796    1.5134   -1.8136 C   0  0  0  0  0  0  0  0  0  0  0  0
    0.2668    0.6670   -1.6673 C   0  0  0  0  0  0  0  0  0  0  0  0
    0.9265    0.0916   -0.7178 C   0  0  0  0  0  0  0  0  0  0  0  0
    0.3621    0.2919    0.5586 C   0  0  0  0  0  0  0  0  0  0  0  0
   -0.7736    1.1164    0.6268 C   0  0  0  0  0  0  0  0  0  0  0  0
   -1.3368    1.7030   -0.5221 C   0  0  0  0  0  0  0  0  0  0  0  0
   -1.1966    1.9373   -2.7184 H   0  0  0  0  0  0  0  0  0  0  0  0
   -2.2401    2.3002   -0.4403 H   0  0  0  0  0  0  0  0  0  0  0  0
    0.7817   -0.1387    1.4632 H   0  0  0  0  0  0  0  0  0  0  0  0
    2.1638   -1.1293   -0.9101 N   0  0  0  0  0  0  0  0  0  0  0  0
    3.2243   -0.9832   -0.4205 N   0  0  0  0  0  0  0  0  0  0  0  0
    4.0265   -0.0516    0.2450 C   0  0  0  0  0  0  0  0  0  0  0  0
    5.0637   -0.5757    1.0357 C   0  0  0  0  0  0  0  0  0  0  0  0
    3.8386    1.3334    0.0735 C   0  0  0  0  0  0  0  0  0  0  0  0
    5.8926    0.3073    1.7124 C   0  0  0  0  0  0  0  0  0  0  0  0
    5.1905   -1.6500    1.1140 H   0  0  0  0  0  0  0  0  0  0  0  0
    4.6952    2.1983    0.7393 C   0  0  0  0  0  0  0  0  0  0  0  0
    3.0616    1.7130   -0.5785 H   0  0  0  0  0  0  0  0  0  0  0  0
    5.7125    1.6896    1.5644 C   0  0  0  0  0  0  0  0  0  0  0  0
    6.6953   -0.0493    2.3483 H   0  0  0  0  0  0  0  0  0  0  0  0
    4.5862    3.2705    0.6227 H   0  0  0  0  0  0  0  0  0  0  0  0
   -1.3516    1.3425    1.9955 C   0  0  0  0  0  0  0  0  0  0  0  0
   -0.8581    0.8877    3.0025 O   0  0  0  0  0  0  0  0  0  0  0  0
   -2.4603    2.1001    1.9624 O   0  0  0  0  0  0  0  0  0  0  0  0
   -2.7778    2.1993    2.8769 H   0  0  0  0  0  0  0  0  0  0  0  0
    6.6577    2.5913    2.3074 C   0  0  0  0  0  0  0  0  0  0  0  0
    7.5403    2.1779    3.0240 O   0  0  0  0  0  0  0  0  0  0  0  0
    6.4056    3.8931    2.0822 O   0  0  0  0  0  0  0  0  0  0  0  0
    7.0556    4.4082    2.5907 H   0  0  0  0  0  0  0  0  0  0  0  0
  1  2  2  0  0  0  0
  1  6  1  0  0  0  0
  2  3  1  0  0  0  0
  3  4  2  0  0  0  0
  4  5  1  0  0  0  0
  4  9  1  0  0  0  0
  5 22  1  0  0  0  0
  6  8  1  0  0  0  0
  6  5  2  0  0  0  0
  7  1  1  0  0  0  0
 10  3  1  0  0  0  0
 10 11  2  0  0  0  0
 11 12  1  0  0  0  0
 12 13  1  0  0  0  0
 13 16  1  0  0  0  0
 13 15  2  0  0  0  0
 14 12  2  0  0  0  0
 14 17  1  0  0  0  0
 15 20  1  0  0  0  0
 17 19  2  0  0  0  0
 18 14  1  0  0  0  0
 19 15  1  0  0  0  0
 19 26  1  0  0  0  0
 21 17  1  0  0  0  0
 22 23  2  0  0  0  0
 24 22  1  0  0  0  0
 24 25  1  0  0  0  0
 26 27  2  0  0  0  0
 28 26  1  0  0  0  0
 28 29  1  0  0  0  0
M  RAD  1   2   2
M  END
