Coordinates from ORCA-job 1g-Schema6-R11-K+-B3LYPG-6-31G_dp-scan-d49-09-n400
 OpenBabel08281819543D

 29 31  0  0  1  0  0  0  0  0999 V2000
    1.2620    2.1284    0.5018 C   0  0  0  0  0  0  0  0  0  0  0  0
    1.9821    1.0156    0.1122 C   0  0  0  0  0  0  0  0  0  0  0  0
    1.3528   -0.2656    0.0787 C   0  0  0  0  0  0  0  0  0  0  0  0
   -0.0113   -0.3437    0.4272 C   0  0  0  0  0  0  0  0  0  0  0  0
   -0.7127    0.7711    0.8921 C   0  0  0  0  0  0  0  0  0  0  0  0
   -0.0752    2.0104    0.9241 C   0  0  0  0  0  0  0  0  0  0  0  0
    1.7385    3.1031    0.5074 H   0  0  0  0  0  0  0  0  0  0  0  0
   -0.6095    2.8852    1.2773 H   0  0  0  0  0  0  0  0  0  0  0  0
   -0.5271   -1.2961    0.3455 H   0  0  0  0  0  0  0  0  0  0  0  0
    1.8899   -1.3824   -0.4485 N   0  0  0  0  0  0  0  0  0  0  0  0
    3.0359   -1.2013   -0.0845 N   0  0  0  0  0  0  0  0  0  0  0  0
    3.8775   -0.2618    0.2197 C   0  0  0  0  0  0  0  0  0  0  0  0
    4.9068   -0.3922    1.1864 C   0  0  0  0  0  0  0  0  0  0  0  0
    3.4554    1.0617   -0.3530 C   0  0  2  0  0  0  0  0  0  0  0  0
    5.5912    0.7358    1.5525 C   0  0  0  0  0  0  0  0  0  0  0  0
    5.1120   -1.3619    1.6246 H   0  0  0  0  0  0  0  0  0  0  0  0
    4.3196    2.2016    0.0707 C   0  0  0  0  0  0  0  0  0  0  0  0
    3.4325    1.0558   -1.4563 H   0  0  0  0  0  0  0  0  0  0  0  0
    5.3102    2.0349    0.9817 C   0  0  0  0  0  0  0  0  0  0  0  0
    6.3889    0.6855    2.2878 H   0  0  0  0  0  0  0  0  0  0  0  0
    4.1863    3.1571   -0.4259 H   0  0  0  0  0  0  0  0  0  0  0  0
   -2.1417    0.5731    1.3032 C   0  0  0  0  0  0  0  0  0  0  0  0
   -2.7005   -0.4988    1.2557 O   0  0  0  0  0  0  0  0  0  0  0  0
   -2.7112    1.7153    1.7250 O   0  0  0  0  0  0  0  0  0  0  0  0
   -3.6292    1.5115    1.9747 H   0  0  0  0  0  0  0  0  0  0  0  0
    6.1949    3.1644    1.4309 C   0  0  0  0  0  0  0  0  0  0  0  0
    7.0722    3.0189    2.2503 O   0  0  0  0  0  0  0  0  0  0  0  0
    5.8865    4.3245    0.8300 O   0  0  0  0  0  0  0  0  0  0  0  0
    6.4960    5.0049    1.1658 H   0  0  0  0  0  0  0  0  0  0  0  0
  1  7  1  0  0  0  0
  1  6  2  0  0  0  0
  2  1  1  0  0  0  0
  3  2  2  0  0  0  0
  3  4  1  0  0  0  0
  4  5  2  0  0  0  0
  5  6  1  0  0  0  0
  5 22  1  0  0  0  0
  6  8  1  0  0  0  0
  9  4  1  0  0  0  0
 10 11  1  0  0  0  0
 10  3  1  0  0  0  0
 11 12  1  0  0  0  0
 12 13  2  0  0  0  0
 13 15  1  0  0  0  0
 13 16  1  0  0  0  0
 14 18  1  6  0  0  0
 14 17  1  0  0  0  0
 14  2  1  0  0  0  0
 14 12  1  0  0  0  0
 15 20  1  0  0  0  0
 17 19  2  0  0  0  0
 19 26  1  0  0  0  0
 19 15  1  0  0  0  0
 21 17  1  0  0  0  0
 22 24  1  0  0  0  0
 23 22  2  0  0  0  0
 24 25  1  0  0  0  0
 26 27  2  0  0  0  0
 28 29  1  0  0  0  0
 28 26  1  0  0  0  0
M  RAD  3  10   2  11   2  15   2
M  END
