Coordinates from ORCA-job 1g-Schema6-R11-K+-B3LYPG-6-31G_dp-scan-d49-09-n400
 OpenBabel08281819543D

 29 30  0  0  0  0  0  0  0  0999 V2000
   -0.6101    1.5843   -1.7170 C   0  0  0  0  0  0  0  0  0  0  0  0
    0.3243    0.6139   -1.7303 C   0  0  0  0  0  0  0  0  0  0  0  0
    1.0940   -0.0482   -0.8803 C   0  0  0  0  0  0  0  0  0  0  0  0
    0.6545    0.1823    0.4541 C   0  0  0  0  0  0  0  0  0  0  0  0
   -0.3861    1.0848    0.6842 C   0  0  0  0  0  0  0  0  0  0  0  0
   -1.0190    1.7686   -0.3706 C   0  0  0  0  0  0  0  0  0  0  0  0
   -1.1030    2.0547   -2.5600 H   0  0  0  0  0  0  0  0  0  0  0  0
   -1.8793    2.4035   -0.1786 H   0  0  0  0  0  0  0  0  0  0  0  0
    1.1540   -0.2968    1.2917 H   0  0  0  0  0  0  0  0  0  0  0  0
    2.0877   -1.0731   -1.2052 N   0  0  0  0  0  0  0  0  0  0  0  0
    3.1552   -1.0508   -0.6521 N   0  0  0  0  0  0  0  0  0  0  0  0
    3.8327   -0.0814    0.0979 C   0  0  0  0  0  0  0  0  0  0  0  0
    4.6457   -0.5553    1.1450 C   0  0  0  0  0  0  0  0  0  0  0  0
    3.8095    1.2829   -0.2587 C   0  0  0  0  0  0  0  0  0  0  0  0
    5.3638    0.3585    1.9006 C   0  0  0  0  0  0  0  0  0  0  0  0
    4.6810   -1.6190    1.3543 H   0  0  0  0  0  0  0  0  0  0  0  0
    4.5682    2.1771    0.4833 C   0  0  0  0  0  0  0  0  0  0  0  0
    3.2482    1.6231   -1.1213 H   0  0  0  0  0  0  0  0  0  0  0  0
    5.3308    1.7223    1.5717 C   0  0  0  0  0  0  0  0  0  0  0  0
    5.9778    0.0389    2.7353 H   0  0  0  0  0  0  0  0  0  0  0  0
    4.5842    3.2285    0.2206 H   0  0  0  0  0  0  0  0  0  0  0  0
   -0.7824    1.2964    2.1200 C   0  0  0  0  0  0  0  0  0  0  0  0
   -0.2124    0.7615    3.0430 O   0  0  0  0  0  0  0  0  0  0  0  0
   -1.8221    2.1359    2.2380 O   0  0  0  0  0  0  0  0  0  0  0  0
   -2.0305    2.2245    3.1846 H   0  0  0  0  0  0  0  0  0  0  0  0
    6.1602    2.6544    2.4056 C   0  0  0  0  0  0  0  0  0  0  0  0
    6.8217    2.2890    3.3508 O   0  0  0  0  0  0  0  0  0  0  0  0
    6.0793    3.9300    1.9833 O   0  0  0  0  0  0  0  0  0  0  0  0
    6.6446    4.4648    2.5670 H   0  0  0  0  0  0  0  0  0  0  0  0
  1  6  1  0  0  0  0
  2  1  2  0  0  0  0
  2  3  1  0  0  0  0
  3  4  2  0  0  0  0
  4  5  1  0  0  0  0
  4  9  1  0  0  0  0
  5 22  1  0  0  0  0
  6  8  1  0  0  0  0
  6  5  2  0  0  0  0
  7  1  1  0  0  0  0
 10  3  1  0  0  0  0
 10 11  1  0  0  0  0
 11 12  1  0  0  0  0
 12 13  1  0  0  0  0
 13 16  1  0  0  0  0
 13 15  2  0  0  0  0
 14 12  2  0  0  0  0
 14 17  1  0  0  0  0
 15 20  1  0  0  0  0
 17 19  2  0  0  0  0
 18 14  1  0  0  0  0
 19 15  1  0  0  0  0
 19 26  1  0  0  0  0
 21 17  1  0  0  0  0
 22 24  1  0  0  0  0
 22 23  2  0  0  0  0
 24 25  1  0  0  0  0
 26 27  2  0  0  0  0
 28 26  1  0  0  0  0
 28 29  1  0  0  0  0
M  RAD  3   2   2  10   2  11   2
M  END
