Coordinates from ORCA-job 1g-Schema6-R11-K+-B3LYPG-6-31G_dp-scan-d49-09-n400
 OpenBabel08281819543D

 29 29  0  0  0  0  0  0  0  0999 V2000
   -1.0876    1.2745   -1.9651 C   0  0  0  0  0  0  0  0  0  0  0  0
    0.0597    0.6009   -1.6588 C   0  0  0  0  0  0  0  0  0  0  0  0
    0.6453    0.2090   -0.6099 C   0  0  0  0  0  0  0  0  0  0  0  0
    0.0214    0.4750    0.6170 C   0  0  0  0  0  0  0  0  0  0  0  0
   -1.1991    1.1802    0.5083 C   0  0  0  0  0  0  0  0  0  0  0  0
   -1.7358    1.5617   -0.7387 C   0  0  0  0  0  0  0  0  0  0  0  0
   -1.4787    1.5580   -2.9332 H   0  0  0  0  0  0  0  0  0  0  0  0
   -2.6811    2.0938   -0.7695 H   0  0  0  0  0  0  0  0  0  0  0  0
    0.3892    0.1839    1.5956 H   0  0  0  0  0  0  0  0  0  0  0  0
    2.4015   -1.3272   -0.5564 N   0  0  0  0  0  0  0  0  0  0  0  0
    3.2997   -0.8265   -0.0968 N   0  0  0  0  0  0  0  0  0  0  0  0
    4.2476    0.0066    0.4649 C   0  0  0  0  0  0  0  0  0  0  0  0
    5.5058   -0.5352    0.7869 C   0  0  0  0  0  0  0  0  0  0  0  0
    3.8992    1.3541    0.6814 C   0  0  0  0  0  0  0  0  0  0  0  0
    6.4435    0.3170    1.3489 C   0  0  0  0  0  0  0  0  0  0  0  0
    5.7226   -1.5805    0.5977 H   0  0  0  0  0  0  0  0  0  0  0  0
    4.8609    2.1801    1.2455 C   0  0  0  0  0  0  0  0  0  0  0  0
    2.9132    1.7160    0.4135 H   0  0  0  0  0  0  0  0  0  0  0  0
    6.1250    1.6650    1.5774 C   0  0  0  0  0  0  0  0  0  0  0  0
    7.4314   -0.0376    1.6206 H   0  0  0  0  0  0  0  0  0  0  0  0
    4.6388    3.2239    1.4330 H   0  0  0  0  0  0  0  0  0  0  0  0
   -1.8938    1.5031    1.7962 C   0  0  0  0  0  0  0  0  0  0  0  0
   -1.4394    1.2325    2.8869 O   0  0  0  0  0  0  0  0  0  0  0  0
   -3.0729    2.1268    1.6102 O   0  0  0  0  0  0  0  0  0  0  0  0
   -3.4508    2.2939    2.4906 H   0  0  0  0  0  0  0  0  0  0  0  0
    7.1976    2.5256    2.1917 C   0  0  0  0  0  0  0  0  0  0  0  0
    8.2916    2.1002    2.4816 O   0  0  0  0  0  0  0  0  0  0  0  0
    6.7907    3.7920    2.3698 O   0  0  0  0  0  0  0  0  0  0  0  0
    7.5270    4.2886    2.7678 H   0  0  0  0  0  0  0  0  0  0  0  0
  1  2  2  0  0  0  0
  1  6  1  0  0  0  0
  2  3  1  0  0  0  0
  3  4  2  0  0  0  0
  4  9  1  0  0  0  0
  5  4  1  0  0  0  0
  5 22  1  0  0  0  0
  6  5  2  0  0  0  0
  7  1  1  0  0  0  0
  8  6  1  0  0  0  0
 10 11  1  0  0  0  0
 11 12  1  0  0  0  0
 12 14  2  0  0  0  0
 12 13  1  0  0  0  0
 13 15  2  0  0  0  0
 14 17  1  0  0  0  0
 15 19  1  0  0  0  0
 15 20  1  0  0  0  0
 16 13  1  0  0  0  0
 17 21  1  0  0  0  0
 17 19  2  0  0  0  0
 18 14  1  0  0  0  0
 19 26  1  0  0  0  0
 22 23  2  0  0  0  0
 24 22  1  0  0  0  0
 24 25  1  0  0  0  0
 26 28  1  0  0  0  0
 26 27  2  0  0  0  0
 28 29  1  0  0  0  0
M  RAD  4   2   2   3   2  10   3  11   2
M  END
