Coordinates from ORCA-job 1g-Schema6-R11-K+-B3LYPG-6-31G_dp-scan-d49-09-n400
 OpenBabel08281819543D

 29 31  0  0  1  0  0  0  0  0999 V2000
    1.2588    2.1339    0.4706 C   0  0  0  0  0  0  0  0  0  0  0  0
    1.9811    1.0242    0.0802 C   0  0  0  0  0  0  0  0  0  0  0  0
    1.3591   -0.2651    0.0588 C   0  0  0  0  0  0  0  0  0  0  0  0
   -0.0021   -0.3432    0.4241 C   0  0  0  0  0  0  0  0  0  0  0  0
   -0.7032    0.7693    0.8949 C   0  0  0  0  0  0  0  0  0  0  0  0
   -0.0732    2.0124    0.9096 C   0  0  0  0  0  0  0  0  0  0  0  0
    1.7323    3.1100    0.4699 H   0  0  0  0  0  0  0  0  0  0  0  0
   -0.6075    2.8867    1.2640 H   0  0  0  0  0  0  0  0  0  0  0  0
   -0.5177   -1.2964    0.3482 H   0  0  0  0  0  0  0  0  0  0  0  0
    1.8829   -1.3785   -0.4884 N   0  0  0  0  0  0  0  0  0  0  0  0
    3.0053   -1.1680   -0.0776 N   0  0  0  0  0  0  0  0  0  0  0  0
    3.8729   -0.2606    0.2160 C   0  0  0  0  0  0  0  0  0  0  0  0
    4.8904   -0.3911    1.2014 C   0  0  0  0  0  0  0  0  0  0  0  0
    3.4586    1.0658   -0.3692 C   0  0  2  0  0  0  0  0  0  0  0  0
    5.5738    0.7338    1.5679 C   0  0  0  0  0  0  0  0  0  0  0  0
    5.0843   -1.3596    1.6472 H   0  0  0  0  0  0  0  0  0  0  0  0
    4.3253    2.2021    0.0645 C   0  0  0  0  0  0  0  0  0  0  0  0
    3.4520    1.0564   -1.4726 H   0  0  0  0  0  0  0  0  0  0  0  0
    5.3034    2.0330    0.9865 C   0  0  0  0  0  0  0  0  0  0  0  0
    6.3642    0.6844    2.3109 H   0  0  0  0  0  0  0  0  0  0  0  0
    4.2027    3.1564   -0.4372 H   0  0  0  0  0  0  0  0  0  0  0  0
   -2.1255    0.5647    1.3254 C   0  0  0  0  0  0  0  0  0  0  0  0
   -2.6781   -0.5110    1.2903 O   0  0  0  0  0  0  0  0  0  0  0  0
   -2.6966    1.7055    1.7484 O   0  0  0  0  0  0  0  0  0  0  0  0
   -3.6103    1.4978    2.0103 H   0  0  0  0  0  0  0  0  0  0  0  0
    6.1887    3.1600    1.4398 C   0  0  0  0  0  0  0  0  0  0  0  0
    7.0575    3.0143    2.2684 O   0  0  0  0  0  0  0  0  0  0  0  0
    5.8919    4.3201    0.8323 O   0  0  0  0  0  0  0  0  0  0  0  0
    6.5018    4.9978    1.1724 H   0  0  0  0  0  0  0  0  0  0  0  0
  1  6  2  0  0  0  0
  2  1  1  0  0  0  0
  3  2  2  0  0  0  0
  3  4  1  0  0  0  0
  4  5  2  0  0  0  0
  5  6  1  0  0  0  0
  5 22  1  0  0  0  0
  6  8  1  0  0  0  0
  7  1  1  0  0  0  0
  9  4  1  0  0  0  0
 10 11  1  0  0  0  0
 10  3  1  0  0  0  0
 11 12  1  0  0  0  0
 12 13  2  0  0  0  0
 13 15  1  0  0  0  0
 13 16  1  0  0  0  0
 14 18  1  6  0  0  0
 14 17  1  0  0  0  0
 14  2  1  0  0  0  0
 14 12  1  0  0  0  0
 15 20  1  0  0  0  0
 17 19  2  0  0  0  0
 19 26  1  0  0  0  0
 19 15  1  0  0  0  0
 21 17  1  0  0  0  0
 22 24  1  0  0  0  0
 23 22  2  0  0  0  0
 24 25  1  0  0  0  0
 26 27  2  0  0  0  0
 28 29  1  0  0  0  0
 28 26  1  0  0  0  0
M  RAD  3  10   2  11   2  15   2
M  END
