Coordinates from ORCA-job 1g-Schema6-R11-K+-B3LYPG-6-31G_dp-scan-d49-09-n400
 OpenBabel08281819543D

 29 29  0  0  0  0  0  0  0  0999 V2000
   -0.9268    1.9967   -1.7412 C   0  0  0  0  0  0  0  0  0  0  0  0
    0.3149    1.6927   -1.2401 C   0  0  0  0  0  0  0  0  0  0  0  0
    0.7436    1.3057   -0.1247 C   0  0  0  0  0  0  0  0  0  0  0  0
   -0.1458    1.1103    0.9357 C   0  0  0  0  0  0  0  0  0  0  0  0
   -1.4915    1.3804    0.5910 C   0  0  0  0  0  0  0  0  0  0  0  0
   -1.8653    1.8092   -0.7011 C   0  0  0  0  0  0  0  0  0  0  0  0
   -1.1957    2.3282   -2.7354 H   0  0  0  0  0  0  0  0  0  0  0  0
   -2.9122    2.0074   -0.9072 H   0  0  0  0  0  0  0  0  0  0  0  0
    0.1000    0.7875    1.9410 H   0  0  0  0  0  0  0  0  0  0  0  0
    2.9070   -2.0089   -0.2922 N   0  0  0  0  0  0  0  0  0  0  0  0
    3.6367   -1.2525    0.0800 N   0  0  0  0  0  0  0  0  0  0  0  0
    4.5296   -0.3098    0.5402 C   0  0  0  0  0  0  0  0  0  0  0  0
    5.8054   -0.7481    0.9558 C   0  0  0  0  0  0  0  0  0  0  0  0
    4.1012    1.0322    0.5647 C   0  0  0  0  0  0  0  0  0  0  0  0
    6.6794    0.2207    1.4166 C   0  0  0  0  0  0  0  0  0  0  0  0
    6.0794   -1.7965    0.9132 H   0  0  0  0  0  0  0  0  0  0  0  0
    5.0082    1.9714    1.0350 C   0  0  0  0  0  0  0  0  0  0  0  0
    3.0978    1.2952    0.2324 H   0  0  0  0  0  0  0  0  0  0  0  0
    6.2860    1.5702    1.4572 C   0  0  0  0  0  0  0  0  0  0  0  0
    7.6763   -0.0408    1.7537 H   0  0  0  0  0  0  0  0  0  0  0  0
    4.7295    3.0179    1.0780 H   0  0  0  0  0  0  0  0  0  0  0  0
   -2.5050    1.1860    1.6748 C   0  0  0  0  0  0  0  0  0  0  0  0
   -2.2327    0.8071    2.7947 O   0  0  0  0  0  0  0  0  0  0  0  0
   -3.7612    1.4762    1.2773 O   0  0  0  0  0  0  0  0  0  0  0  0
   -4.3405    1.3216    2.0427 H   0  0  0  0  0  0  0  0  0  0  0  0
    7.2998    2.5585    1.9759 C   0  0  0  0  0  0  0  0  0  0  0  0
    8.4038    2.2266    2.3402 O   0  0  0  0  0  0  0  0  0  0  0  0
    6.8269    3.8123    1.9770 O   0  0  0  0  0  0  0  0  0  0  0  0
    7.5238    4.3979    2.3218 H   0  0  0  0  0  0  0  0  0  0  0  0
  1  2  2  0  0  0  0
  1  6  1  0  0  0  0
  2  3  1  0  0  0  0
  3  4  2  0  0  0  0
  4  9  1  0  0  0  0
  5  4  1  0  0  0  0
  5 22  1  0  0  0  0
  6  5  2  0  0  0  0
  7  1  1  0  0  0  0
  8  6  1  0  0  0  0
 10 11  1  0  0  0  0
 11 12  1  0  0  0  0
 12 14  2  0  0  0  0
 12 13  1  0  0  0  0
 13 15  2  0  0  0  0
 14 17  1  0  0  0  0
 15 19  1  0  0  0  0
 15 20  1  0  0  0  0
 16 13  1  0  0  0  0
 17 21  1  0  0  0  0
 17 19  2  0  0  0  0
 18 14  1  0  0  0  0
 19 26  1  0  0  0  0
 22 23  2  0  0  0  0
 24 22  1  0  0  0  0
 24 25  1  0  0  0  0
 26 28  1  0  0  0  0
 26 27  2  0  0  0  0
 28 29  1  0  0  0  0
M  RAD  4   2   2   3   2  10   3  11   2
M  END
