Coordinates from ORCA-job 1g-Schema6-R11-K+-B3LYPG-6-31G_dp-scan-d49-09-n400
 OpenBabel08281819543D

 29 29  0  0  0  0  0  0  0  0999 V2000
   -0.8902    2.0201   -1.7223 C   0  0  0  0  0  0  0  0  0  0  0  0
    0.3337    1.6397   -1.2285 C   0  0  0  0  0  0  0  0  0  0  0  0
    0.7437    1.2469   -0.1086 C   0  0  0  0  0  0  0  0  0  0  0  0
   -0.1446    1.1302    0.9635 C   0  0  0  0  0  0  0  0  0  0  0  0
   -1.4718    1.4875    0.6261 C   0  0  0  0  0  0  0  0  0  0  0  0
   -1.8286    1.9172   -0.6706 C   0  0  0  0  0  0  0  0  0  0  0  0
   -1.1466    2.3500   -2.7204 H   0  0  0  0  0  0  0  0  0  0  0  0
   -2.8615    2.1823   -0.8710 H   0  0  0  0  0  0  0  0  0  0  0  0
    0.0893    0.8074    1.9715 H   0  0  0  0  0  0  0  0  0  0  0  0
    3.3003   -2.3797   -0.4247 N   0  0  0  0  0  0  0  0  0  0  0  0
    3.9200   -1.5429   -0.0255 N   0  0  0  0  0  0  0  0  0  0  0  0
    4.6823   -0.5074    0.4678 C   0  0  0  0  0  0  0  0  0  0  0  0
    6.0093   -0.7907    0.8580 C   0  0  0  0  0  0  0  0  0  0  0  0
    4.0822    0.7651    0.5500 C   0  0  0  0  0  0  0  0  0  0  0  0
    6.7546    0.2646    1.3528 C   0  0  0  0  0  0  0  0  0  0  0  0
    6.4171   -1.7918    0.7710 H   0  0  0  0  0  0  0  0  0  0  0  0
    4.8656    1.7951    1.0519 C   0  0  0  0  0  0  0  0  0  0  0  0
    3.0494    0.9219    0.2367 H   0  0  0  0  0  0  0  0  0  0  0  0
    6.1892    1.5485    1.4500 C   0  0  0  0  0  0  0  0  0  0  0  0
    7.7808    0.1223    1.6733 H   0  0  0  0  0  0  0  0  0  0  0  0
    4.4526    2.7934    1.1383 H   0  0  0  0  0  0  0  0  0  0  0  0
   -2.4845    1.3855    1.7228 C   0  0  0  0  0  0  0  0  0  0  0  0
   -2.2269    1.0169    2.8495 O   0  0  0  0  0  0  0  0  0  0  0  0
   -3.7238    1.7462    1.3286 O   0  0  0  0  0  0  0  0  0  0  0  0
   -4.3037    1.6474    2.1027 H   0  0  0  0  0  0  0  0  0  0  0  0
    7.0719    2.6397    2.0012 C   0  0  0  0  0  0  0  0  0  0  0  0
    8.2117    2.4394    2.3504 O   0  0  0  0  0  0  0  0  0  0  0  0
    6.4414    3.8212    2.0496 O   0  0  0  0  0  0  0  0  0  0  0  0
    7.0596    4.4794    2.4129 H   0  0  0  0  0  0  0  0  0  0  0  0
  1  2  2  0  0  0  0
  1  6  1  0  0  0  0
  2  3  1  0  0  0  0
  3  4  2  0  0  0  0
  4  9  1  0  0  0  0
  5  4  1  0  0  0  0
  5 22  1  0  0  0  0
  6  5  2  0  0  0  0
  7  1  1  0  0  0  0
  8  6  1  0  0  0  0
 10 11  1  0  0  0  0
 11 12  1  0  0  0  0
 12 14  2  0  0  0  0
 12 13  1  0  0  0  0
 13 15  2  0  0  0  0
 14 17  1  0  0  0  0
 15 19  1  0  0  0  0
 15 20  1  0  0  0  0
 16 13  1  0  0  0  0
 17 21  1  0  0  0  0
 17 19  2  0  0  0  0
 18 14  1  0  0  0  0
 19 26  1  0  0  0  0
 22 23  2  0  0  0  0
 24 22  1  0  0  0  0
 24 25  1  0  0  0  0
 26 28  1  0  0  0  0
 26 27  2  0  0  0  0
 28 29  1  0  0  0  0
M  RAD  4   2   2   3   2  10   3  11   2
M  END
