Coordinates from ORCA-job 1g-Schema6-R11-K+-B3LYPG-6-31G_dp-scan-d49-09-n400
 OpenBabel08281819543D

 29 29  0  0  0  0  0  0  0  0999 V2000
   -0.9245    1.3966   -1.9057 C   0  0  0  0  0  0  0  0  0  0  0  0
    0.1819    0.6419   -1.6607 C   0  0  0  0  0  0  0  0  0  0  0  0
    0.7802    0.1493   -0.6538 C   0  0  0  0  0  0  0  0  0  0  0  0
    0.1751    0.3707    0.5940 C   0  0  0  0  0  0  0  0  0  0  0  0
   -1.0071    1.1401    0.5567 C   0  0  0  0  0  0  0  0  0  0  0  0
   -1.5420    1.6314   -0.6512 C   0  0  0  0  0  0  0  0  0  0  0  0
   -1.3112    1.7643   -2.8469 H   0  0  0  0  0  0  0  0  0  0  0  0
   -2.4604    2.2097   -0.6334 H   0  0  0  0  0  0  0  0  0  0  0  0
    0.5477   -0.0048    1.5420 H   0  0  0  0  0  0  0  0  0  0  0  0
    2.2693   -1.2670   -0.6888 N   0  0  0  0  0  0  0  0  0  0  0  0
    3.2201   -0.8739   -0.1994 N   0  0  0  0  0  0  0  0  0  0  0  0
    4.1222   -0.0060    0.3934 C   0  0  0  0  0  0  0  0  0  0  0  0
    5.3076   -0.5568    0.9129 C   0  0  0  0  0  0  0  0  0  0  0  0
    3.8302    1.3713    0.4375 C   0  0  0  0  0  0  0  0  0  0  0  0
    6.2186    0.3041    1.5062 C   0  0  0  0  0  0  0  0  0  0  0  0
    5.4893   -1.6238    0.8471 H   0  0  0  0  0  0  0  0  0  0  0  0
    4.7637    2.2095    1.0301 C   0  0  0  0  0  0  0  0  0  0  0  0
    2.9072    1.7533    0.0189 H   0  0  0  0  0  0  0  0  0  0  0  0
    5.9503    1.6797    1.5642 C   0  0  0  0  0  0  0  0  0  0  0  0
    7.1470   -0.0641    1.9280 H   0  0  0  0  0  0  0  0  0  0  0  0
    4.5798    3.2763    1.0843 H   0  0  0  0  0  0  0  0  0  0  0  0
   -1.6657    1.4084    1.8777 C   0  0  0  0  0  0  0  0  0  0  0  0
   -1.2070    1.0389    2.9363 O   0  0  0  0  0  0  0  0  0  0  0  0
   -2.8104    2.1043    1.7531 O   0  0  0  0  0  0  0  0  0  0  0  0
   -3.1711    2.2320    2.6475 H   0  0  0  0  0  0  0  0  0  0  0  0
    6.9871    2.5535    2.2172 C   0  0  0  0  0  0  0  0  0  0  0  0
    8.0156    2.1177    2.6809 O   0  0  0  0  0  0  0  0  0  0  0  0
    6.6331    3.8489    2.2179 O   0  0  0  0  0  0  0  0  0  0  0  0
    7.3460    4.3498    2.6512 H   0  0  0  0  0  0  0  0  0  0  0  0
  1  2  2  0  0  0  0
  1  6  1  0  0  0  0
  2  3  1  0  0  0  0
  3  4  2  0  0  0  0
  4  9  1  0  0  0  0
  5  4  1  0  0  0  0
  5 22  1  0  0  0  0
  6  8  1  0  0  0  0
  6  5  2  0  0  0  0
  7  1  1  0  0  0  0
 10 11  1  0  0  0  0
 11 12  1  0  0  0  0
 12 14  2  0  0  0  0
 12 13  1  0  0  0  0
 13 15  2  0  0  0  0
 14 17  1  0  0  0  0
 15 19  1  0  0  0  0
 15 20  1  0  0  0  0
 16 13  1  0  0  0  0
 17 21  1  0  0  0  0
 17 19  2  0  0  0  0
 18 14  1  0  0  0  0
 19 26  1  0  0  0  0
 22 23  2  0  0  0  0
 24 22  1  0  0  0  0
 24 25  1  0  0  0  0
 26 28  1  0  0  0  0
 26 27  2  0  0  0  0
 28 29  1  0  0  0  0
M  RAD  4   2   2   3   2  10   3  11   2
M  END
