Coordinates from ORCA-job 1g-Schema6-R11-K+-B3LYPG-6-31G_dp-scan-d49-09-n400
 OpenBabel08281819543D

 29 32  0  0  1  0  0  0  0  0999 V2000
    0.9932    2.3173    0.3357 C   0  0  0  0  0  0  0  0  0  0  0  0
    1.8580    1.2502    0.1622 C   0  0  0  0  0  0  0  0  0  0  0  0
    1.3666   -0.1067    0.1975 C   0  0  1  0  0  0  0  0  0  0  0  0
    0.0229   -0.3692    0.6186 C   0  0  0  0  0  0  0  0  0  0  0  0
   -0.8087    0.7055    0.8366 C   0  0  0  0  0  0  0  0  0  0  0  0
   -0.3366    2.0378    0.6648 C   0  0  0  0  0  0  0  0  0  0  0  0
    1.3330    3.3458    0.2780 H   0  0  0  0  0  0  0  0  0  0  0  0
   -1.0302    2.8543    0.8337 H   0  0  0  0  0  0  0  0  0  0  0  0
   -0.3511   -1.3849    0.6972 H   0  0  0  0  0  0  0  0  0  0  0  0
    2.0644   -0.9431   -0.8448 N   0  0  0  0  0  0  0  0  0  0  0  0
    2.6148   -0.9735    0.3881 N   0  0  0  0  0  0  0  0  0  0  0  0
    3.7366   -0.1303    0.6220 C   0  0  0  0  0  0  0  0  0  0  0  0
    4.9240   -0.4113    1.2376 C   0  0  0  0  0  0  0  0  0  0  0  0
    3.3769    1.2016    0.0795 C   0  0  2  0  0  0  0  0  0  0  0  0
    5.8380    0.6527    1.3504 C   0  0  0  0  0  0  0  0  0  0  0  0
    5.1622   -1.4077    1.5936 H   0  0  0  0  0  0  0  0  0  0  0  0
    4.2825    2.2933    0.4316 C   0  0  0  0  0  0  0  0  0  0  0  0
    3.5166    0.9607   -1.0245 H   0  0  0  0  0  0  0  0  0  0  0  0
    5.5089    1.9839    0.9798 C   0  0  0  0  0  0  0  0  0  0  0  0
    6.8353    0.4811    1.7442 H   0  0  0  0  0  0  0  0  0  0  0  0
    4.0103    3.3256    0.2389 H   0  0  0  0  0  0  0  0  0  0  0  0
   -2.2291    0.4089    1.2327 C   0  0  0  0  0  0  0  0  0  0  0  0
   -2.6497   -0.7135    1.3869 O   0  0  0  0  0  0  0  0  0  0  0  0
   -2.9504    1.5305    1.3980 O   0  0  0  0  0  0  0  0  0  0  0  0
   -3.8511    1.2681    1.6566 H   0  0  0  0  0  0  0  0  0  0  0  0
    6.5475    3.0367    1.2620 C   0  0  0  0  0  0  0  0  0  0  0  0
    7.6330    2.7800    1.7265 O   0  0  0  0  0  0  0  0  0  0  0  0
    6.1203    4.2666    0.9335 O   0  0  0  0  0  0  0  0  0  0  0  0
    6.8343    4.8949    1.1403 H   0  0  0  0  0  0  0  0  0  0  0  0
  1  6  1  0  0  0  0
  2  3  1  0  0  0  0
  2  1  2  0  0  0  0
  3 10  1  6  0  0  0
  3 11  1  0  0  0  0
  3  4  1  0  0  0  0
  4  9  1  0  0  0  0
  4  5  2  0  0  0  0
  5 22  1  0  0  0  0
  6  8  1  0  0  0  0
  6  5  1  0  0  0  0
  7  1  1  0  0  0  0
 10 11  1  0  0  0  0
 11 12  1  0  0  0  0
 12 13  2  0  0  0  0
 13 15  1  0  0  0  0
 13 16  1  0  0  0  0
 14 18  1  6  0  0  0
 14  2  1  0  0  0  0
 14 17  1  0  0  0  0
 14 12  1  0  0  0  0
 15 20  1  0  0  0  0
 17 19  2  0  0  0  0
 19 26  1  0  0  0  0
 19 15  1  0  0  0  0
 21 17  1  0  0  0  0
 22 23  2  0  0  0  0
 22 24  1  0  0  0  0
 24 25  1  0  0  0  0
 26 27  2  0  0  0  0
 28 29  1  0  0  0  0
 28 26  1  0  0  0  0
M  RAD  3   6   2  10   2  15   2
M  END
