Coordinates from ORCA-job 1g-Schema6-R11-K+-B3LYPG-6-31G_dp-scan-d49-09-n400
 OpenBabel08281819543D

 29 31  0  0  0  0  0  0  0  0999 V2000
    0.9041    2.4698    0.5636 C   0  0  0  0  0  0  0  0  0  0  0  0
    1.8970    1.5012    0.6083 C   0  0  0  0  0  0  0  0  0  0  0  0
    1.5749   -0.0028    0.6685 C   0  0  0  0  0  0  0  0  0  0  0  0
    0.1238   -0.3113    0.9016 C   0  0  0  0  0  0  0  0  0  0  0  0
   -0.8077    0.6810    0.7985 C   0  0  0  0  0  0  0  0  0  0  0  0
   -0.4218    2.0521    0.6360 C   0  0  0  0  0  0  0  0  0  0  0  0
    1.1420    3.5287    0.5344 H   0  0  0  0  0  0  0  0  0  0  0  0
   -1.2133    2.7943    0.6124 H   0  0  0  0  0  0  0  0  0  0  0  0
   -0.1754   -1.3499    1.0110 H   0  0  0  0  0  0  0  0  0  0  0  0
    1.9436   -0.8631   -0.5848 N   0  0  0  0  0  0  0  0  0  0  0  0
    2.4351   -0.6214    0.8207 N   0  0  0  0  0  0  0  0  0  0  0  0
    3.6615    0.1140    0.9099 C   0  0  0  0  0  0  0  0  0  0  0  0
    4.9608   -0.3383    1.0433 C   0  0  0  0  0  0  0  0  0  0  0  0
    3.3124    1.4923    0.7893 C   0  0  0  0  0  0  0  0  0  0  0  0
    5.9445    0.6510    1.0861 C   0  0  0  0  0  0  0  0  0  0  0  0
    5.1985   -1.3924    1.1285 H   0  0  0  0  0  0  0  0  0  0  0  0
    4.3225    2.4712    0.8394 C   0  0  0  0  0  0  0  0  0  0  0  0
    2.4727   -0.1732   -1.1475 H   0  0  0  0  0  0  0  0  0  0  0  0
    5.6337    2.0304    0.9884 C   0  0  0  0  0  0  0  0  0  0  0  0
    6.9896    0.3847    1.2086 H   0  0  0  0  0  0  0  0  0  0  0  0
    4.1029    3.5307    0.7723 H   0  0  0  0  0  0  0  0  0  0  0  0
   -2.2561    0.2816    0.9113 C   0  0  0  0  0  0  0  0  0  0  0  0
   -2.6154   -0.8626    1.0530 O   0  0  0  0  0  0  0  0  0  0  0  0
   -3.0746    1.3446    0.8387 O   0  0  0  0  0  0  0  0  0  0  0  0
   -3.9893    1.0227    0.9234 H   0  0  0  0  0  0  0  0  0  0  0  0
    6.7890    2.9889    1.0616 C   0  0  0  0  0  0  0  0  0  0  0  0
    7.9376    2.6328    1.1894 O   0  0  0  0  0  0  0  0  0  0  0  0
    6.3923    4.2703    0.9676 O   0  0  0  0  0  0  0  0  0  0  0  0
    7.1876    4.8282    1.0236 H   0  0  0  0  0  0  0  0  0  0  0  0
  1  2  2  0  0  0  0
  1  6  1  0  0  0  0
  2  3  1  0  0  0  0
  2 14  1  0  0  0  0
  3 11  1  0  0  0  0
  3  4  2  0  0  0  0
  4  9  1  0  0  0  0
  5  4  1  0  0  0  0
  5 22  1  0  0  0  0
  6  5  2  0  0  0  0
  7  1  1  0  0  0  0
  8  6  1  0  0  0  0
 10 11  1  0  0  0  0
 11 12  1  0  0  0  0
 12 13  2  0  0  0  0
 13 15  1  0  0  0  0
 13 16  1  0  0  0  0
 14 17  2  0  0  0  0
 14 12  1  0  0  0  0
 15 20  1  0  0  0  0
 17 19  1  0  0  0  0
 18 10  1  0  0  0  0
 19 26  1  0  0  0  0
 19 15  2  0  0  0  0
 21 17  1  0  0  0  0
 22 23  2  0  0  0  0
 24 22  1  0  0  0  0
 24 25  1  0  0  0  0
 26 27  2  0  0  0  0
 28 29  1  0  0  0  0
 28 26  1  0  0  0  0
M  RAD  1  10   2
M  END
