Coordinates from ORCA-job 1g-Schema6-R11-K+-B3LYPG-6-31G_dp-scan-d49-09-n400
 OpenBabel08281819543D

 29 31  0  0  1  0  0  0  0  0999 V2000
    1.2424    2.1472    0.4106 C   0  0  0  0  0  0  0  0  0  0  0  0
    1.9718    1.0405    0.0309 C   0  0  0  0  0  0  0  0  0  0  0  0
    1.3596   -0.2614    0.0362 C   0  0  0  0  0  0  0  0  0  0  0  0
    0.0048   -0.3444    0.4287 C   0  0  0  0  0  0  0  0  0  0  0  0
   -0.6973    0.7685    0.8956 C   0  0  0  0  0  0  0  0  0  0  0  0
   -0.0823    2.0193    0.8714 C   0  0  0  0  0  0  0  0  0  0  0  0
    1.7082    3.1269    0.3968 H   0  0  0  0  0  0  0  0  0  0  0  0
   -0.6209    2.8943    1.2173 H   0  0  0  0  0  0  0  0  0  0  0  0
   -0.5075   -1.3007    0.3699 H   0  0  0  0  0  0  0  0  0  0  0  0
    1.8777   -1.3692   -0.5441 N   0  0  0  0  0  0  0  0  0  0  0  0
    2.9547   -1.1180   -0.0429 N   0  0  0  0  0  0  0  0  0  0  0  0
    3.8712   -0.2642    0.2231 C   0  0  0  0  0  0  0  0  0  0  0  0
    4.8915   -0.3978    1.2141 C   0  0  0  0  0  0  0  0  0  0  0  0
    3.4602    1.0677   -0.3770 C   0  0  2  0  0  0  0  0  0  0  0  0
    5.5763    0.7222    1.5754 C   0  0  0  0  0  0  0  0  0  0  0  0
    5.0826   -1.3674    1.6584 H   0  0  0  0  0  0  0  0  0  0  0  0
    4.3260    2.2014    0.0760 C   0  0  0  0  0  0  0  0  0  0  0  0
    3.4887    1.0522   -1.4804 H   0  0  0  0  0  0  0  0  0  0  0  0
    5.3019    2.0262    0.9956 C   0  0  0  0  0  0  0  0  0  0  0  0
    6.3716    0.6726    2.3126 H   0  0  0  0  0  0  0  0  0  0  0  0
    4.2005    3.1600   -0.4170 H   0  0  0  0  0  0  0  0  0  0  0  0
   -2.1095    0.5567    1.3558 C   0  0  0  0  0  0  0  0  0  0  0  0
   -2.6498   -0.5257    1.3512 O   0  0  0  0  0  0  0  0  0  0  0  0
   -2.6855    1.6990    1.7671 O   0  0  0  0  0  0  0  0  0  0  0  0
   -3.5922    1.4871    2.0491 H   0  0  0  0  0  0  0  0  0  0  0  0
    6.1859    3.1516    1.4529 C   0  0  0  0  0  0  0  0  0  0  0  0
    7.0590    3.0035    2.2769 O   0  0  0  0  0  0  0  0  0  0  0  0
    5.8859    4.3164    0.8546 O   0  0  0  0  0  0  0  0  0  0  0  0
    6.4972    4.9909    1.1984 H   0  0  0  0  0  0  0  0  0  0  0  0
  1  6  2  0  0  0  0
  2  3  2  0  0  0  0
  2  1  1  0  0  0  0
  3  4  1  0  0  0  0
  4  5  2  0  0  0  0
  5 22  1  0  0  0  0
  6  5  1  0  0  0  0
  6  8  1  0  0  0  0
  7  1  1  0  0  0  0
  9  4  1  0  0  0  0
 10 11  1  0  0  0  0
 10  3  1  0  0  0  0
 11 12  2  0  0  0  0
 12 13  1  0  0  0  0
 13 15  2  0  0  0  0
 13 16  1  0  0  0  0
 14 18  1  6  0  0  0
 14  2  1  0  0  0  0
 14 17  1  0  0  0  0
 14 12  1  0  0  0  0
 15 20  1  0  0  0  0
 17 19  2  0  0  0  0
 19 26  1  0  0  0  0
 19 15  1  0  0  0  0
 21 17  1  0  0  0  0
 22 24  1  0  0  0  0
 23 22  2  0  0  0  0
 24 25  1  0  0  0  0
 26 27  2  0  0  0  0
 28 29  1  0  0  0  0
 28 26  1  0  0  0  0
M  RAD  1  10   2
M  END
