Coordinates from ORCA-job 1g-Schema6-R11-K+-B3LYPG-6-31G_dp-scan-d49-09-n400
 OpenBabel08281819543D

 29 32  0  0  1  0  0  0  0  0999 V2000
    1.0630    2.2710    0.2991 C   0  0  0  0  0  0  0  0  0  0  0  0
    1.8822    1.1822    0.0602 C   0  0  0  0  0  0  0  0  0  0  0  0
    1.3399   -0.1583    0.0933 C   0  0  1  0  0  0  0  0  0  0  0  0
    0.0045   -0.3691    0.5475 C   0  0  0  0  0  0  0  0  0  0  0  0
   -0.7741    0.7308    0.8484 C   0  0  0  0  0  0  0  0  0  0  0  0
   -0.2622    2.0429    0.6889 C   0  0  0  0  0  0  0  0  0  0  0  0
    1.4433    3.2859    0.2549 H   0  0  0  0  0  0  0  0  0  0  0  0
   -0.9091    2.8838    0.9128 H   0  0  0  0  0  0  0  0  0  0  0  0
   -0.4153   -1.3685    0.6002 H   0  0  0  0  0  0  0  0  0  0  0  0
    2.0308   -1.0784   -0.8187 N   0  0  0  0  0  0  0  0  0  0  0  0
    2.6809   -1.0208    0.3295 N   0  0  0  0  0  0  0  0  0  0  0  0
    3.7852   -0.1948    0.5122 C   0  0  0  0  0  0  0  0  0  0  0  0
    4.9394   -0.4200    1.2353 C   0  0  0  0  0  0  0  0  0  0  0  0
    3.4064    1.1287   -0.0665 C   0  0  2  0  0  0  0  0  0  0  0  0
    5.7979    0.6648    1.4030 C   0  0  0  0  0  0  0  0  0  0  0  0
    5.1813   -1.4046    1.6204 H   0  0  0  0  0  0  0  0  0  0  0  0
    4.2734    2.2504    0.3386 C   0  0  0  0  0  0  0  0  0  0  0  0
    3.5638    0.9423   -1.1671 H   0  0  0  0  0  0  0  0  0  0  0  0
    5.4505    1.9899    0.9864 C   0  0  0  0  0  0  0  0  0  0  0  0
    6.7640    0.5364    1.8809 H   0  0  0  0  0  0  0  0  0  0  0  0
    3.9941    3.2694    0.0930 H   0  0  0  0  0  0  0  0  0  0  0  0
   -2.1859    0.4723    1.2987 C   0  0  0  0  0  0  0  0  0  0  0  0
   -2.6417   -0.6391    1.4321 O   0  0  0  0  0  0  0  0  0  0  0  0
   -2.8567    1.6123    1.5343 O   0  0  0  0  0  0  0  0  0  0  0  0
   -3.7546    1.3734    1.8235 H   0  0  0  0  0  0  0  0  0  0  0  0
    6.4286    3.0781    1.3383 C   0  0  0  0  0  0  0  0  0  0  0  0
    7.4787    2.8602    1.8957 O   0  0  0  0  0  0  0  0  0  0  0  0
    5.9938    4.2918    0.9625 O   0  0  0  0  0  0  0  0  0  0  0  0
    6.6706    4.9422    1.2197 H   0  0  0  0  0  0  0  0  0  0  0  0
  1  6  1  0  0  0  0
  2  3  1  0  0  0  0
  2  1  2  0  0  0  0
  3 10  1  6  0  0  0
  3 11  1  0  0  0  0
  3  4  1  0  0  0  0
  4  9  1  0  0  0  0
  4  5  2  0  0  0  0
  5 22  1  0  0  0  0
  6  5  1  0  0  0  0
  6  8  1  0  0  0  0
  7  1  1  0  0  0  0
 10 11  1  0  0  0  0
 11 12  1  0  0  0  0
 12 13  2  0  0  0  0
 13 15  1  0  0  0  0
 13 16  1  0  0  0  0
 14 18  1  6  0  0  0
 14  2  1  0  0  0  0
 14 17  1  0  0  0  0
 14 12  1  0  0  0  0
 15 20  1  0  0  0  0
 17 19  2  0  0  0  0
 19 26  1  0  0  0  0
 19 15  1  0  0  0  0
 21 17  1  0  0  0  0
 22 23  2  0  0  0  0
 22 24  1  0  0  0  0
 24 25  1  0  0  0  0
 26 27  2  0  0  0  0
 28 29  1  0  0  0  0
 28 26  1  0  0  0  0
M  RAD  3   6   2  10   2  15   2
M  END
