Coordinates from ORCA-job 1g-Schema6-R11-K+-B3LYPG-6-31G_dp-scan-d49-09-n400
 OpenBabel08281819543D

 29 29  0  0  0  0  0  0  0  0999 V2000
   -0.9713    1.4746   -1.8888 C   0  0  0  0  0  0  0  0  0  0  0  0
    0.1637    0.8372   -1.4714 C   0  0  0  0  0  0  0  0  0  0  0  0
    0.6098    0.3846   -0.3811 C   0  0  0  0  0  0  0  0  0  0  0  0
   -0.1944    0.5082    0.7605 C   0  0  0  0  0  0  0  0  0  0  0  0
   -1.4284    1.1566    0.5266 C   0  0  0  0  0  0  0  0  0  0  0  0
   -1.8034    1.6194   -0.7524 C   0  0  0  0  0  0  0  0  0  0  0  0
   -1.2381    1.8226   -2.8777 H   0  0  0  0  0  0  0  0  0  0  0  0
   -2.7654    2.1050   -0.8789 H   0  0  0  0  0  0  0  0  0  0  0  0
    0.0491    0.1541    1.7563 H   0  0  0  0  0  0  0  0  0  0  0  0
    2.4006   -1.2881   -0.3044 N   0  0  0  0  0  0  0  0  0  0  0  0
    3.3396   -0.8082    0.0851 N   0  0  0  0  0  0  0  0  0  0  0  0
    4.3427    0.0121    0.5633 C   0  0  0  0  0  0  0  0  0  0  0  0
    5.6040   -0.5499    0.8328 C   0  0  0  0  0  0  0  0  0  0  0  0
    4.0335    1.3731    0.7527 C   0  0  0  0  0  0  0  0  0  0  0  0
    6.5891    0.2989    1.3126 C   0  0  0  0  0  0  0  0  0  0  0  0
    5.7874   -1.6056    0.6671 H   0  0  0  0  0  0  0  0  0  0  0  0
    5.0424    2.1942    1.2352 C   0  0  0  0  0  0  0  0  0  0  0  0
    3.0412    1.7474    0.5256 H   0  0  0  0  0  0  0  0  0  0  0  0
    6.3120    1.6605    1.5134 C   0  0  0  0  0  0  0  0  0  0  0  0
    7.5833   -0.0688    1.5410 H   0  0  0  0  0  0  0  0  0  0  0  0
    4.8536    3.2483    1.4003 H   0  0  0  0  0  0  0  0  0  0  0  0
   -2.3237    1.3271    1.7162 C   0  0  0  0  0  0  0  0  0  0  0  0
   -2.0266    0.9705    2.8358 O   0  0  0  0  0  0  0  0  0  0  0  0
   -3.4930    1.9211    1.4067 O   0  0  0  0  0  0  0  0  0  0  0  0
   -4.0064    1.9872    2.2301 H   0  0  0  0  0  0  0  0  0  0  0  0
    7.4358    2.5156    2.0379 C   0  0  0  0  0  0  0  0  0  0  0  0
    8.5350    2.0739    2.2797 O   0  0  0  0  0  0  0  0  0  0  0  0
    7.0666    3.7958    2.1961 O   0  0  0  0  0  0  0  0  0  0  0  0
    7.8340    4.2882    2.5366 H   0  0  0  0  0  0  0  0  0  0  0  0
  1  2  2  0  0  0  0
  1  6  1  0  0  0  0
  2  3  1  0  0  0  0
  3  4  2  0  0  0  0
  4  9  1  0  0  0  0
  5  4  1  0  0  0  0
  5 22  1  0  0  0  0
  6  5  2  0  0  0  0
  7  1  1  0  0  0  0
  8  6  1  0  0  0  0
 10 11  1  0  0  0  0
 11 12  1  0  0  0  0
 12 14  2  0  0  0  0
 12 13  1  0  0  0  0
 13 15  2  0  0  0  0
 14 17  1  0  0  0  0
 15 19  1  0  0  0  0
 15 20  1  0  0  0  0
 16 13  1  0  0  0  0
 17 21  1  0  0  0  0
 17 19  2  0  0  0  0
 18 14  1  0  0  0  0
 19 26  1  0  0  0  0
 22 23  2  0  0  0  0
 24 22  1  0  0  0  0
 24 25  1  0  0  0  0
 26 28  1  0  0  0  0
 26 27  2  0  0  0  0
 28 29  1  0  0  0  0
M  RAD  4   2   2   3   2  10   3  11   2
M  END
