Coordinates from ORCA-job p-CH3O-Ph-N2-X-OTf-B3LYPG-6-31G_dp-scan-d09-49-n400
 OpenBabel08281820593D

 25 24  0  0  0  0  0  0  0  0999 V2000
   -2.3353   -0.6877   -4.9344 C   0  0  0  0  0  0  0  0  0  0  0  0
   -1.2138   -0.3121   -5.6441 C   0  0  0  0  0  0  0  0  0  0  0  0
   -1.2343    0.9379   -6.2957 C   0  0  0  0  0  0  0  0  0  0  0  0
   -2.3472    1.7986   -6.2377 C   0  0  0  0  0  0  0  0  0  0  0  0
   -3.4629    1.4058   -5.5199 C   0  0  0  0  0  0  0  0  0  0  0  0
   -3.4644    0.1561   -4.8630 C   0  0  0  0  0  0  0  0  0  0  0  0
   -2.3685   -1.6373   -4.4130 H   0  0  0  0  0  0  0  0  0  0  0  0
   -0.3136   -0.9148   -5.7031 H   0  0  0  0  0  0  0  0  0  0  0  0
   -2.3266    2.7530   -6.7519 H   0  0  0  0  0  0  0  0  0  0  0  0
   -4.3210    2.0636   -5.4727 H   0  0  0  0  0  0  0  0  0  0  0  0
   -0.1597    1.3636   -7.0463 N   0  0  0  0  0  0  0  0  0  0  0  0
    0.6121    1.8241   -7.7200 N   0  0  0  0  0  0  0  0  0  0  0  0
    2.7180   -0.4363   -7.0284 S   0  0  0  0  0  0  0  0  0  0  0  0
    3.8779    0.7884   -6.2524 C   0  0  0  0  0  0  0  0  0  0  0  0
    2.2734    0.2687   -8.2701 O   0  0  0  0  0  0  0  0  0  0  0  0
    1.6244   -0.5183   -6.0158 O   0  0  0  0  0  0  0  0  0  0  0  0
    3.5161   -1.6464   -7.2328 O   0  0  0  0  0  0  0  0  0  0  0  0
    4.9199    1.0371   -7.0539 F   0  0  0  0  0  0  0  0  0  0  0  0
    3.2329    1.9539   -6.0276 F   0  0  0  0  0  0  0  0  0  0  0  0
    4.3394    0.3365   -5.0787 F   0  0  0  0  0  0  0  0  0  0  0  0
   -4.4931   -0.3154   -4.1438 O   0  0  0  0  0  0  0  0  0  0  0  0
   -5.6786    0.4717   -4.0028 C   0  0  0  0  0  0  0  0  0  0  0  0
   -6.3514   -0.1219   -3.3844 H   0  0  0  0  0  0  0  0  0  0  0  0
   -6.1457    0.6596   -4.9756 H   0  0  0  0  0  0  0  0  0  0  0  0
   -5.4638    1.4219   -3.5019 H   0  0  0  0  0  0  0  0  0  0  0  0
  1  6  1  0  0  0  0
  1  7  1  0  0  0  0
  2  1  2  0  0  0  0
  3  4  2  0  0  0  0
  3  2  1  0  0  0  0
  4  5  1  0  0  0  0
  5 10  1  0  0  0  0
  5  6  2  0  0  0  0
  6 21  1  0  0  0  0
  8  2  1  0  0  0  0
  9  4  1  0  0  0  0
 11  3  1  0  0  0  0
 12 11  1  0  0  0  0
 13 14  1  0  0  0  0
 13 16  1  0  0  0  0
 14 19  1  0  0  0  0
 14 20  1  0  0  0  0
 15 13  2  0  0  0  0
 17 13  2  0  0  0  0
 18 14  1  0  0  0  0
 21 22  1  0  0  0  0
 22 25  1  0  0  0  0
 22 23  1  0  0  0  0
 24 22  1  0  0  0  0
M  RAD  3  11   2  12   3  16   2
M  END
