Coordinates from ORCA-job p-CH3O-Ph-N2-X-OTf-B3LYPG-6-31G_dp-scan-d09-49-n400
 OpenBabel08281820593D

 25 24  0  0  0  0  0  0  0  0999 V2000
   -2.2742   -0.5743   -4.8934 C   0  0  0  0  0  0  0  0  0  0  0  0
   -1.1466   -0.0942   -5.5257 C   0  0  0  0  0  0  0  0  0  0  0  0
   -1.2363    1.1656   -6.1565 C   0  0  0  0  0  0  0  0  0  0  0  0
   -2.4141    1.9346   -6.1504 C   0  0  0  0  0  0  0  0  0  0  0  0
   -3.5361    1.4322   -5.5157 C   0  0  0  0  0  0  0  0  0  0  0  0
   -3.4731    0.1709   -4.8838 C   0  0  0  0  0  0  0  0  0  0  0  0
   -2.2599   -1.5334   -4.3890 H   0  0  0  0  0  0  0  0  0  0  0  0
   -0.1904   -0.6145   -5.5322 H   0  0  0  0  0  0  0  0  0  0  0  0
   -2.4395    2.9000   -6.6432 H   0  0  0  0  0  0  0  0  0  0  0  0
   -4.4480    2.0149   -5.5112 H   0  0  0  0  0  0  0  0  0  0  0  0
   -0.1454    1.6762   -6.8197 N   0  0  0  0  0  0  0  0  0  0  0  0
    0.7529    2.0210   -7.3987 N   0  0  0  0  0  0  0  0  0  0  0  0
    2.5982   -0.4831   -6.8201 S   0  0  0  0  0  0  0  0  0  0  0  0
    4.0440    0.6418   -6.5195 C   0  0  0  0  0  0  0  0  0  0  0  0
    1.9449    0.1307   -8.0230 O   0  0  0  0  0  0  0  0  0  0  0  0
    1.7811   -0.2960   -5.5873 O   0  0  0  0  0  0  0  0  0  0  0  0
    3.1780   -1.8115   -7.0340 O   0  0  0  0  0  0  0  0  0  0  0  0
    4.8834    0.6301   -7.5620 F   0  0  0  0  0  0  0  0  0  0  0  0
    3.6139    1.9084   -6.3401 F   0  0  0  0  0  0  0  0  0  0  0  0
    4.7186    0.2714   -5.4233 F   0  0  0  0  0  0  0  0  0  0  0  0
   -4.5020   -0.4018   -4.2428 O   0  0  0  0  0  0  0  0  0  0  0  0
   -5.7595    0.2758   -4.1720 C   0  0  0  0  0  0  0  0  0  0  0  0
   -6.4184   -0.3891   -3.6145 H   0  0  0  0  0  0  0  0  0  0  0  0
   -6.1726    0.4463   -5.1721 H   0  0  0  0  0  0  0  0  0  0  0  0
   -5.6646    1.2283   -3.6397 H   0  0  0  0  0  0  0  0  0  0  0  0
  1  6  1  0  0  0  0
  1  7  1  0  0  0  0
  2  1  2  0  0  0  0
  3  4  2  0  0  0  0
  3  2  1  0  0  0  0
  4  5  1  0  0  0  0
  5 10  1  0  0  0  0
  5  6  2  0  0  0  0
  6 21  1  0  0  0  0
  8  2  1  0  0  0  0
  9  4  1  0  0  0  0
 11  3  1  0  0  0  0
 12 11  1  0  0  0  0
 13 14  1  0  0  0  0
 13 16  1  0  0  0  0
 14 19  1  0  0  0  0
 14 20  1  0  0  0  0
 15 13  2  0  0  0  0
 17 13  2  0  0  0  0
 18 14  1  0  0  0  0
 21 22  1  0  0  0  0
 22 25  1  0  0  0  0
 22 23  1  0  0  0  0
 24 22  1  0  0  0  0
M  RAD  3  11   2  12   3  16   2
M  END
