Coordinates from ORCA-job p-CH3O-Ph-N2-X-OTf-B3LYPG-6-31G_dp-scan-d09-49-n400
 OpenBabel08281820593D

 25 24  0  0  0  0  0  0  0  0999 V2000
   -1.6410    0.0595   -4.7944 C   0  0  0  0  0  0  0  0  0  0  0  0
   -0.7221    0.9489   -5.3505 C   0  0  0  0  0  0  0  0  0  0  0  0
   -1.3468    1.9431   -6.1453 C   0  0  0  0  0  0  0  0  0  0  0  0
   -2.7340    2.0872   -6.3968 C   0  0  0  0  0  0  0  0  0  0  0  0
   -3.5815    1.1714   -5.8162 C   0  0  0  0  0  0  0  0  0  0  0  0
   -3.0303    0.1450   -5.0042 C   0  0  0  0  0  0  0  0  0  0  0  0
   -1.2967   -0.7569   -4.1631 H   0  0  0  0  0  0  0  0  0  0  0  0
    0.7733    0.7924   -5.1217 H   0  0  0  0  0  0  0  0  0  0  0  0
   -3.1158    2.8864   -7.0253 H   0  0  0  0  0  0  0  0  0  0  0  0
   -4.6481    1.2435   -5.9873 H   0  0  0  0  0  0  0  0  0  0  0  0
   -0.5281    2.8729   -6.7355 N   0  0  0  0  0  0  0  0  0  0  0  0
    0.1600    3.6195   -7.2050 N   0  0  0  0  0  0  0  0  0  0  0  0
    2.7760    0.8645   -6.0803 S   0  0  0  0  0  0  0  0  0  0  0  0
    2.9724   -0.8675   -6.7245 C   0  0  0  0  0  0  0  0  0  0  0  0
    2.1127    1.6067   -7.1609 O   0  0  0  0  0  0  0  0  0  0  0  0
    4.0885    1.2777   -5.6056 O   0  0  0  0  0  0  0  0  0  0  0  0
    1.7958    0.6237   -4.8968 O   0  0  0  0  0  0  0  0  0  0  0  0
    1.7755   -1.3582   -7.0758 F   0  0  0  0  0  0  0  0  0  0  0  0
    3.7688   -0.8583   -7.7975 F   0  0  0  0  0  0  0  0  0  0  0  0
    3.5066   -1.6562   -5.7894 F   0  0  0  0  0  0  0  0  0  0  0  0
   -3.7779   -0.7937   -4.3957 O   0  0  0  0  0  0  0  0  0  0  0  0
   -5.1959   -0.7871   -4.5546 C   0  0  0  0  0  0  0  0  0  0  0  0
   -5.5611   -1.6344   -3.9746 H   0  0  0  0  0  0  0  0  0  0  0  0
   -5.4799   -0.9172   -5.6049 H   0  0  0  0  0  0  0  0  0  0  0  0
   -5.6364    0.1373   -4.1643 H   0  0  0  0  0  0  0  0  0  0  0  0
  1  7  1  0  0  0  0
  2  1  2  0  0  0  0
  3  2  1  0  0  0  0
  4  3  2  0  0  0  0
  4  5  1  0  0  0  0
  5  6  2  0  0  0  0
  6  1  1  0  0  0  0
  6 21  1  0  0  0  0
  8 17  1  0  0  0  0
  9  4  1  0  0  0  0
 10  5  1  0  0  0  0
 11  3  1  0  0  0  0
 12 11  1  0  0  0  0
 13 16  2  0  0  0  0
 13 17  1  0  0  0  0
 14 13  1  0  0  0  0
 14 20  1  0  0  0  0
 15 13  2  0  0  0  0
 18 14  1  0  0  0  0
 19 14  1  0  0  0  0
 22 21  1  0  0  0  0
 22 25  1  0  0  0  0
 22 23  1  0  0  0  0
 24 22  1  0  0  0  0
M  RAD  3   2   2  11   2  12   3
M  END
