Coordinates from ORCA-job p-CH3O-Ph-N2-X-OTf-B3LYPG-6-31G_dp-scan-d09-49-n400
 OpenBabel08281820593D

 25 24  0  0  0  0  0  0  0  0999 V2000
   -1.9015   -0.1862   -4.8400 C   0  0  0  0  0  0  0  0  0  0  0  0
   -0.9365    0.5924   -5.4459 C   0  0  0  0  0  0  0  0  0  0  0  0
   -1.3928    1.7019   -6.1939 C   0  0  0  0  0  0  0  0  0  0  0  0
   -2.7519    2.0383   -6.3328 C   0  0  0  0  0  0  0  0  0  0  0  0
   -3.6959    1.2366   -5.7202 C   0  0  0  0  0  0  0  0  0  0  0  0
   -3.2743    0.1152   -4.9685 C   0  0  0  0  0  0  0  0  0  0  0  0
   -1.6158   -1.0495   -4.2490 H   0  0  0  0  0  0  0  0  0  0  0  0
    0.1477    0.3796   -5.3357 H   0  0  0  0  0  0  0  0  0  0  0  0
   -3.0481    2.9042   -6.9149 H   0  0  0  0  0  0  0  0  0  0  0  0
   -4.7459    1.4789   -5.8231 H   0  0  0  0  0  0  0  0  0  0  0  0
   -0.4604    2.4969   -6.8143 N   0  0  0  0  0  0  0  0  0  0  0  0
    0.4220    3.0013   -7.2875 N   0  0  0  0  0  0  0  0  0  0  0  0
    2.6790    0.7848   -6.1349 S   0  0  0  0  0  0  0  0  0  0  0  0
    3.7862   -0.5744   -6.7487 C   0  0  0  0  0  0  0  0  0  0  0  0
    1.8798    1.1323   -7.3550 O   0  0  0  0  0  0  0  0  0  0  0  0
    3.5811    1.8349   -5.6478 O   0  0  0  0  0  0  0  0  0  0  0  0
    1.8422    0.1109   -5.0983 O   0  0  0  0  0  0  0  0  0  0  0  0
    3.0576   -1.5978   -7.2228 F   0  0  0  0  0  0  0  0  0  0  0  0
    4.5772   -0.1263   -7.7326 F   0  0  0  0  0  0  0  0  0  0  0  0
    4.5588   -1.0305   -5.7533 F   0  0  0  0  0  0  0  0  0  0  0  0
   -4.1104   -0.7186   -4.3356 O   0  0  0  0  0  0  0  0  0  0  0  0
   -5.5214   -0.4965   -4.4013 C   0  0  0  0  0  0  0  0  0  0  0  0
   -5.9710   -1.2984   -3.8169 H   0  0  0  0  0  0  0  0  0  0  0  0
   -5.8815   -0.5508   -5.4342 H   0  0  0  0  0  0  0  0  0  0  0  0
   -5.7896    0.4708   -3.9627 H   0  0  0  0  0  0  0  0  0  0  0  0
  1  7  1  0  0  0  0
  2  8  1  0  0  0  0
  2  1  2  0  0  0  0
  3  2  1  0  0  0  0
  4  3  2  0  0  0  0
  4  5  1  0  0  0  0
  5  6  2  0  0  0  0
  6  1  1  0  0  0  0
  6 21  1  0  0  0  0
  9  4  1  0  0  0  0
 10  5  1  0  0  0  0
 11  3  1  0  0  0  0
 12 11  1  0  0  0  0
 13 16  2  0  0  0  0
 13 17  1  0  0  0  0
 14 13  1  0  0  0  0
 14 20  1  0  0  0  0
 15 13  2  0  0  0  0
 18 14  1  0  0  0  0
 19 14  1  0  0  0  0
 22 21  1  0  0  0  0
 22 25  1  0  0  0  0
 22 23  1  0  0  0  0
 24 22  1  0  0  0  0
M  RAD  3  11   2  12   3  17   2
M  END
