Coordinates from ORCA-job p-CH3O-Ph-N2-X-OTf-B3LYPG-6-31G_dp-scan-d09-49-n400
 OpenBabel08281820593D

 25 24  0  0  0  0  0  0  0  0999 V2000
   -2.1515   -0.6434   -5.2679 C   0  0  0  0  0  0  0  0  0  0  0  0
   -1.1593   -0.1175   -6.0671 C   0  0  0  0  0  0  0  0  0  0  0  0
   -1.3735    1.1694   -6.6122 C   0  0  0  0  0  0  0  0  0  0  0  0
   -2.5405    1.9126   -6.3598 C   0  0  0  0  0  0  0  0  0  0  0  0
   -3.5174    1.3719   -5.5435 C   0  0  0  0  0  0  0  0  0  0  0  0
   -3.3272    0.0871   -4.9906 C   0  0  0  0  0  0  0  0  0  0  0  0
   -2.0381   -1.6259   -4.8252 H   0  0  0  0  0  0  0  0  0  0  0  0
   -0.2410   -0.6614   -6.2637 H   0  0  0  0  0  0  0  0  0  0  0  0
   -2.6642    2.8975   -6.7958 H   0  0  0  0  0  0  0  0  0  0  0  0
   -4.4142    1.9423   -5.3407 H   0  0  0  0  0  0  0  0  0  0  0  0
   -0.4329    1.7374   -7.4346 N   0  0  0  0  0  0  0  0  0  0  0  0
    0.3332    2.1702   -8.1288 N   0  0  0  0  0  0  0  0  0  0  0  0
    2.3132    0.2030   -6.6461 S   0  0  0  0  0  0  0  0  0  0  0  0
    4.0729    0.2680   -6.0577 C   0  0  0  0  0  0  0  0  0  0  0  0
    2.3513    0.8547   -7.9902 O   0  0  0  0  0  0  0  0  0  0  0  0
    1.5546    0.9964   -5.6432 O   0  0  0  0  0  0  0  0  0  0  0  0
    1.9739   -1.2370   -6.6662 O   0  0  0  0  0  0  0  0  0  0  0  0
    4.8720   -0.4138   -6.8887 F   0  0  0  0  0  0  0  0  0  0  0  0
    4.5014    1.5373   -5.9977 F   0  0  0  0  0  0  0  0  0  0  0  0
    4.1702   -0.2699   -4.8332 F   0  0  0  0  0  0  0  0  0  0  0  0
   -4.2098   -0.5259   -4.1901 O   0  0  0  0  0  0  0  0  0  0  0  0
   -5.4253    0.1380   -3.8340 C   0  0  0  0  0  0  0  0  0  0  0  0
   -5.9529   -0.5525   -3.1765 H   0  0  0  0  0  0  0  0  0  0  0  0
   -6.0381    0.3406   -4.7191 H   0  0  0  0  0  0  0  0  0  0  0  0
   -5.2223    1.0711   -3.2972 H   0  0  0  0  0  0  0  0  0  0  0  0
  1  6  1  0  0  0  0
  1  7  1  0  0  0  0
  2  1  2  0  0  0  0
  3  4  2  0  0  0  0
  3  2  1  0  0  0  0
  4  5  1  0  0  0  0
  5 10  1  0  0  0  0
  5  6  2  0  0  0  0
  6 21  1  0  0  0  0
  8  2  1  0  0  0  0
  9  4  1  0  0  0  0
 11  3  1  0  0  0  0
 12 11  1  0  0  0  0
 13 14  1  0  0  0  0
 13 16  1  0  0  0  0
 14 19  1  0  0  0  0
 14 20  1  0  0  0  0
 15 13  2  0  0  0  0
 17 13  2  0  0  0  0
 18 14  1  0  0  0  0
 21 22  1  0  0  0  0
 22 25  1  0  0  0  0
 22 23  1  0  0  0  0
 24 22  1  0  0  0  0
M  RAD  3  11   2  12   3  16   2
M  END
