Coordinates from ORCA-job p-CH3O-Ph-N2-X-OTf-B3LYPG-6-31G_dp-scan-d09-49-n400
 OpenBabel08281820593D

 25 24  0  0  0  0  0  0  0  0999 V2000
   -2.1905   -0.5227   -4.9375 C   0  0  0  0  0  0  0  0  0  0  0  0
   -1.1137    0.0257   -5.6009 C   0  0  0  0  0  0  0  0  0  0  0  0
   -1.3032    1.2691   -6.2432 C   0  0  0  0  0  0  0  0  0  0  0  0
   -2.5323    1.9536   -6.2164 C   0  0  0  0  0  0  0  0  0  0  0  0
   -3.6002    1.3875   -5.5436 C   0  0  0  0  0  0  0  0  0  0  0  0
   -3.4357    0.1413   -4.9005 C   0  0  0  0  0  0  0  0  0  0  0  0
   -2.0980   -1.4732   -4.4254 H   0  0  0  0  0  0  0  0  0  0  0  0
   -0.1280   -0.4305   -5.6097 H   0  0  0  0  0  0  0  0  0  0  0  0
   -2.6368    2.9074   -6.7211 H   0  0  0  0  0  0  0  0  0  0  0  0
   -4.5481    1.9090   -5.5188 H   0  0  0  0  0  0  0  0  0  0  0  0
   -0.2793    1.8475   -6.9568 N   0  0  0  0  0  0  0  0  0  0  0  0
    0.5304    2.2941   -7.5910 N   0  0  0  0  0  0  0  0  0  0  0  0
    2.4488   -0.1142   -6.7361 S   0  0  0  0  0  0  0  0  0  0  0  0
    4.2295    0.3261   -6.4540 C   0  0  0  0  0  0  0  0  0  0  0  0
    2.1034    0.5895   -8.0120 O   0  0  0  0  0  0  0  0  0  0  0  0
    1.7532    0.4847   -5.5610 O   0  0  0  0  0  0  0  0  0  0  0  0
    2.4151   -1.5814   -6.8020 O   0  0  0  0  0  0  0  0  0  0  0  0
    4.9925   -0.1329   -7.4548 F   0  0  0  0  0  0  0  0  0  0  0  0
    4.3772    1.6593   -6.3840 F   0  0  0  0  0  0  0  0  0  0  0  0
    4.6657   -0.2082   -5.3048 F   0  0  0  0  0  0  0  0  0  0  0  0
   -4.4050   -0.4902   -4.2239 O   0  0  0  0  0  0  0  0  0  0  0  0
   -5.7021    0.1038   -4.1220 C   0  0  0  0  0  0  0  0  0  0  0  0
   -6.2960   -0.5919   -3.5302 H   0  0  0  0  0  0  0  0  0  0  0  0
   -6.1587    0.2256   -5.1102 H   0  0  0  0  0  0  0  0  0  0  0  0
   -5.6535    1.0711   -3.6102 H   0  0  0  0  0  0  0  0  0  0  0  0
  1  6  1  0  0  0  0
  1  7  1  0  0  0  0
  2  1  2  0  0  0  0
  3  4  2  0  0  0  0
  3  2  1  0  0  0  0
  4  5  1  0  0  0  0
  5 10  1  0  0  0  0
  5  6  2  0  0  0  0
  6 21  1  0  0  0  0
  8  2  1  0  0  0  0
  9  4  1  0  0  0  0
 11  3  1  0  0  0  0
 12 11  1  0  0  0  0
 13 14  1  0  0  0  0
 13 16  1  0  0  0  0
 14 19  1  0  0  0  0
 14 20  1  0  0  0  0
 15 13  2  0  0  0  0
 17 13  2  0  0  0  0
 18 14  1  0  0  0  0
 21 22  1  0  0  0  0
 22 25  1  0  0  0  0
 22 23  1  0  0  0  0
 24 22  1  0  0  0  0
M  RAD  3  11   2  12   3  16   2
M  END
