Coordinates from ORCA-job p-CH3O-Ph-N2-X-OTf-B3LYPG-6-31G_dp-scan-d09-49-n400
 OpenBabel08281820593D

 25 24  0  0  0  0  0  0  0  0999 V2000
   -2.1724   -0.4768   -4.8703 C   0  0  0  0  0  0  0  0  0  0  0  0
   -1.0905    0.0862   -5.5130 C   0  0  0  0  0  0  0  0  0  0  0  0
   -1.2934    1.3111   -6.1860 C   0  0  0  0  0  0  0  0  0  0  0  0
   -2.5390    1.9649   -6.2093 C   0  0  0  0  0  0  0  0  0  0  0  0
   -3.6120    1.3827   -5.5589 C   0  0  0  0  0  0  0  0  0  0  0  0
   -3.4350    0.1541   -4.8857 C   0  0  0  0  0  0  0  0  0  0  0  0
   -2.0712   -1.4145   -4.3364 H   0  0  0  0  0  0  0  0  0  0  0  0
   -0.0909   -0.3416   -5.4887 H   0  0  0  0  0  0  0  0  0  0  0  0
   -2.6525    2.9060   -6.7356 H   0  0  0  0  0  0  0  0  0  0  0  0
   -4.5738    1.8786   -5.5744 H   0  0  0  0  0  0  0  0  0  0  0  0
   -0.2601    1.9005   -6.8770 N   0  0  0  0  0  0  0  0  0  0  0  0
    0.5665    2.3397   -7.4940 N   0  0  0  0  0  0  0  0  0  0  0  0
    2.4414   -0.1397   -6.7293 S   0  0  0  0  0  0  0  0  0  0  0  0
    4.2338    0.2950   -6.5232 C   0  0  0  0  0  0  0  0  0  0  0  0
    2.0443    0.5687   -7.9876 O   0  0  0  0  0  0  0  0  0  0  0  0
    1.8001    0.4609   -5.5235 O   0  0  0  0  0  0  0  0  0  0  0  0
    2.4003   -1.6064   -6.7980 O   0  0  0  0  0  0  0  0  0  0  0  0
    4.9511   -0.1615   -7.5583 F   0  0  0  0  0  0  0  0  0  0  0  0
    4.3873    1.6278   -6.4548 F   0  0  0  0  0  0  0  0  0  0  0  0
    4.7192   -0.2446   -5.3966 F   0  0  0  0  0  0  0  0  0  0  0  0
   -4.4084   -0.4895   -4.2264 O   0  0  0  0  0  0  0  0  0  0  0  0
   -5.7237    0.0702   -4.1793 C   0  0  0  0  0  0  0  0  0  0  0  0
   -6.3182   -0.6301   -3.5936 H   0  0  0  0  0  0  0  0  0  0  0  0
   -6.1501    0.1604   -5.1844 H   0  0  0  0  0  0  0  0  0  0  0  0
   -5.7186    1.0481   -3.6859 H   0  0  0  0  0  0  0  0  0  0  0  0
  1  7  1  0  0  0  0
  2  8  1  0  0  0  0
  2  1  2  0  0  0  0
  3  2  1  0  0  0  0
  4  3  2  0  0  0  0
  4  5  1  0  0  0  0
  5  6  2  0  0  0  0
  6  1  1  0  0  0  0
  6 21  1  0  0  0  0
  9  4  1  0  0  0  0
 10  5  1  0  0  0  0
 11  3  1  0  0  0  0
 12 11  1  0  0  0  0
 13 14  1  0  0  0  0
 13 16  1  0  0  0  0
 14 19  1  0  0  0  0
 14 20  1  0  0  0  0
 15 13  2  0  0  0  0
 17 13  2  0  0  0  0
 18 14  1  0  0  0  0
 21 22  1  0  0  0  0
 22 25  1  0  0  0  0
 22 23  1  0  0  0  0
 24 22  1  0  0  0  0
M  RAD  3  11   2  12   3  16   2
M  END
