Coordinates from ORCA-job p-CH3O-Ph-N2-X-OTf-B3LYPG-6-31G_dp-scan-d09-49-n400
 OpenBabel08281820593D

 25 24  0  0  0  0  0  0  0  0999 V2000
   -2.2282   -0.6624   -5.2192 C   0  0  0  0  0  0  0  0  0  0  0  0
   -1.1916   -0.1487   -5.9682 C   0  0  0  0  0  0  0  0  0  0  0  0
   -1.3440    1.1534   -6.4951 C   0  0  0  0  0  0  0  0  0  0  0  0
   -2.4977    1.9254   -6.2698 C   0  0  0  0  0  0  0  0  0  0  0  0
   -3.5222    1.3978   -5.5039 C   0  0  0  0  0  0  0  0  0  0  0  0
   -3.3936    0.0960   -4.9745 C   0  0  0  0  0  0  0  0  0  0  0  0
   -2.1607   -1.6561   -4.7924 H   0  0  0  0  0  0  0  0  0  0  0  0
   -0.2751   -0.7018   -6.1282 H   0  0  0  0  0  0  0  0  0  0  0  0
   -2.5761    2.9216   -6.6903 H   0  0  0  0  0  0  0  0  0  0  0  0
   -4.4088    1.9912   -5.3230 H   0  0  0  0  0  0  0  0  0  0  0  0
   -0.3649    1.7069   -7.2841 N   0  0  0  0  0  0  0  0  0  0  0  0
    0.4035    2.1457   -7.9728 N   0  0  0  0  0  0  0  0  0  0  0  0
    2.3955    0.0217   -6.6880 S   0  0  0  0  0  0  0  0  0  0  0  0
    4.1403    0.3927   -6.1751 C   0  0  0  0  0  0  0  0  0  0  0  0
    2.2640    0.6748   -8.0280 O   0  0  0  0  0  0  0  0  0  0  0  0
    1.5659    0.6937   -5.6496 O   0  0  0  0  0  0  0  0  0  0  0  0
    2.3034   -1.4483   -6.6998 O   0  0  0  0  0  0  0  0  0  0  0  0
    5.0098   -0.1401   -7.0437 F   0  0  0  0  0  0  0  0  0  0  0  0
    4.3440    1.7186   -6.1273 F   0  0  0  0  0  0  0  0  0  0  0  0
    4.3845   -0.1163   -4.9589 F   0  0  0  0  0  0  0  0  0  0  0  0
   -4.3262   -0.5085   -4.2254 O   0  0  0  0  0  0  0  0  0  0  0  0
   -5.5374    0.1820   -3.9076 C   0  0  0  0  0  0  0  0  0  0  0  0
   -6.1153   -0.5097   -3.2950 H   0  0  0  0  0  0  0  0  0  0  0  0
   -6.1018    0.4267   -4.8140 H   0  0  0  0  0  0  0  0  0  0  0  0
   -5.3331    1.0939   -3.3363 H   0  0  0  0  0  0  0  0  0  0  0  0
  1  6  1  0  0  0  0
  1  7  1  0  0  0  0
  2  1  2  0  0  0  0
  3  4  2  0  0  0  0
  3  2  1  0  0  0  0
  4  5  1  0  0  0  0
  5 10  1  0  0  0  0
  5  6  2  0  0  0  0
  6 21  1  0  0  0  0
  8  2  1  0  0  0  0
  9  4  1  0  0  0  0
 11  3  1  0  0  0  0
 12 11  1  0  0  0  0
 13 14  1  0  0  0  0
 13 16  1  0  0  0  0
 14 19  1  0  0  0  0
 14 20  1  0  0  0  0
 15 13  2  0  0  0  0
 17 13  2  0  0  0  0
 18 14  1  0  0  0  0
 21 22  1  0  0  0  0
 22 25  1  0  0  0  0
 22 23  1  0  0  0  0
 24 22  1  0  0  0  0
M  RAD  3  11   2  12   3  16   2
M  END
