Coordinates from ORCA-job p-CH3O-Ph-N2-X-OTf-B3LYPG-6-31G_dp-scan-d09-49-n400
 OpenBabel08281820593D

 25 24  0  0  0  0  0  0  0  0999 V2000
   -2.3435   -0.7074   -4.9522 C   0  0  0  0  0  0  0  0  0  0  0  0
   -1.2228   -0.3457   -5.6704 C   0  0  0  0  0  0  0  0  0  0  0  0
   -1.2287    0.9077   -6.3151 C   0  0  0  0  0  0  0  0  0  0  0  0
   -2.3268    1.7860   -6.2409 C   0  0  0  0  0  0  0  0  0  0  0  0
   -3.4416    1.4078   -5.5140 C   0  0  0  0  0  0  0  0  0  0  0  0
   -3.4577    0.1545   -4.8646 C   0  0  0  0  0  0  0  0  0  0  0  0
   -2.3873   -1.6595   -4.4363 H   0  0  0  0  0  0  0  0  0  0  0  0
   -0.3353   -0.9646   -5.7410 H   0  0  0  0  0  0  0  0  0  0  0  0
   -2.2953    2.7431   -6.7497 H   0  0  0  0  0  0  0  0  0  0  0  0
   -4.2880    2.0798   -5.4542 H   0  0  0  0  0  0  0  0  0  0  0  0
   -0.1550    1.3218   -7.0744 N   0  0  0  0  0  0  0  0  0  0  0  0
    0.6055    1.7831   -7.7606 N   0  0  0  0  0  0  0  0  0  0  0  0
    2.7363   -0.4408   -7.0463 S   0  0  0  0  0  0  0  0  0  0  0  0
    3.8248    0.8164   -6.2201 C   0  0  0  0  0  0  0  0  0  0  0  0
    2.3052    0.2630   -8.2933 O   0  0  0  0  0  0  0  0  0  0  0  0
    1.6155   -0.5738   -6.0697 O   0  0  0  0  0  0  0  0  0  0  0  0
    3.5867   -1.6168   -7.2381 O   0  0  0  0  0  0  0  0  0  0  0  0
    4.8847    1.1105   -6.9818 F   0  0  0  0  0  0  0  0  0  0  0  0
    3.1312    1.9569   -6.0077 F   0  0  0  0  0  0  0  0  0  0  0  0
    4.2608    0.3705   -5.0344 F   0  0  0  0  0  0  0  0  0  0  0  0
   -4.4870   -0.3045   -4.1382 O   0  0  0  0  0  0  0  0  0  0  0  0
   -5.6582    0.5008   -3.9813 C   0  0  0  0  0  0  0  0  0  0  0  0
   -6.3348   -0.0854   -3.3602 H   0  0  0  0  0  0  0  0  0  0  0  0
   -6.1312    0.7023   -4.9485 H   0  0  0  0  0  0  0  0  0  0  0  0
   -5.4232    1.4444   -3.4770 H   0  0  0  0  0  0  0  0  0  0  0  0
  1  6  1  0  0  0  0
  1  7  1  0  0  0  0
  2  1  2  0  0  0  0
  3  4  2  0  0  0  0
  3  2  1  0  0  0  0
  4  5  1  0  0  0  0
  5 10  1  0  0  0  0
  5  6  2  0  0  0  0
  6 21  1  0  0  0  0
  8  2  1  0  0  0  0
  9  4  1  0  0  0  0
 11  3  1  0  0  0  0
 12 11  1  0  0  0  0
 13 14  1  0  0  0  0
 13 16  1  0  0  0  0
 14 19  1  0  0  0  0
 14 20  1  0  0  0  0
 15 13  2  0  0  0  0
 17 13  2  0  0  0  0
 18 14  1  0  0  0  0
 21 22  1  0  0  0  0
 22 25  1  0  0  0  0
 22 23  1  0  0  0  0
 24 22  1  0  0  0  0
M  RAD  3  11   2  12   3  16   2
M  END
