Coordinates from ORCA-job p-CH3O-Ph-N2-X-OTf-B3LYPG-6-31G_dp-scan-d09-49-n400
 OpenBabel08281820593D

 25 24  0  0  0  0  0  0  0  0999 V2000
   -2.3181   -0.6428   -4.9276 C   0  0  0  0  0  0  0  0  0  0  0  0
   -1.1912   -0.2232   -5.6030 C   0  0  0  0  0  0  0  0  0  0  0  0
   -1.2355    1.0374   -6.2353 C   0  0  0  0  0  0  0  0  0  0  0  0
   -2.3730    1.8651   -6.1911 C   0  0  0  0  0  0  0  0  0  0  0  0
   -3.4947    1.4255   -5.5112 C   0  0  0  0  0  0  0  0  0  0  0  0
   -3.4746    0.1649   -4.8752 C   0  0  0  0  0  0  0  0  0  0  0  0
   -2.3354   -1.6006   -4.4209 H   0  0  0  0  0  0  0  0  0  0  0  0
   -0.2686   -0.7955   -5.6461 H   0  0  0  0  0  0  0  0  0  0  0  0
   -2.3670    2.8288   -6.6880 H   0  0  0  0  0  0  0  0  0  0  0  0
   -4.3738    2.0557   -5.4758 H   0  0  0  0  0  0  0  0  0  0  0  0
   -0.1498    1.4982   -6.9437 N   0  0  0  0  0  0  0  0  0  0  0  0
    0.7002    1.8907   -7.5640 N   0  0  0  0  0  0  0  0  0  0  0  0
    2.6830   -0.4932   -6.9357 S   0  0  0  0  0  0  0  0  0  0  0  0
    3.9440    0.7480   -6.3734 C   0  0  0  0  0  0  0  0  0  0  0  0
    2.1160    0.1461   -8.1664 O   0  0  0  0  0  0  0  0  0  0  0  0
    1.7091   -0.4883   -5.8062 O   0  0  0  0  0  0  0  0  0  0  0  0
    3.4349   -1.7303   -7.1580 O   0  0  0  0  0  0  0  0  0  0  0  0
    4.8950    0.9201   -7.2991 F   0  0  0  0  0  0  0  0  0  0  0  0
    3.3500    1.9423   -6.1554 F   0  0  0  0  0  0  0  0  0  0  0  0
    4.5246    0.3588   -5.2311 F   0  0  0  0  0  0  0  0  0  0  0  0
   -4.5072   -0.3504   -4.1929 O   0  0  0  0  0  0  0  0  0  0  0  0
   -5.7218    0.3954   -4.0744 C   0  0  0  0  0  0  0  0  0  0  0  0
   -6.3937   -0.2320   -3.4895 H   0  0  0  0  0  0  0  0  0  0  0  0
   -6.1642    0.5881   -5.0577 H   0  0  0  0  0  0  0  0  0  0  0  0
   -5.5536    1.3414   -3.5485 H   0  0  0  0  0  0  0  0  0  0  0  0
  1  6  1  0  0  0  0
  1  7  1  0  0  0  0
  2  1  2  0  0  0  0
  3  4  2  0  0  0  0
  3  2  1  0  0  0  0
  4  5  1  0  0  0  0
  5 10  1  0  0  0  0
  5  6  2  0  0  0  0
  6 21  1  0  0  0  0
  8  2  1  0  0  0  0
  9  4  1  0  0  0  0
 11  3  1  0  0  0  0
 12 11  1  0  0  0  0
 13 14  1  0  0  0  0
 13 16  1  0  0  0  0
 14 19  1  0  0  0  0
 14 20  1  0  0  0  0
 15 13  2  0  0  0  0
 17 13  2  0  0  0  0
 18 14  1  0  0  0  0
 21 22  1  0  0  0  0
 22 25  1  0  0  0  0
 22 23  1  0  0  0  0
 24 22  1  0  0  0  0
M  RAD  3  11   2  12   3  16   2
M  END
