Coordinates from ORCA-job p-CH3O-Ph-N2-X-OTf-B3LYPG-6-31G_dp-scan-d09-49-n400
 OpenBabel08281820593D

 25 24  0  0  0  0  0  0  0  0999 V2000
   -2.2154   -0.5974   -5.0665 C   0  0  0  0  0  0  0  0  0  0  0  0
   -1.1511   -0.0679   -5.7645 C   0  0  0  0  0  0  0  0  0  0  0  0
   -1.3178    1.2073   -6.3487 C   0  0  0  0  0  0  0  0  0  0  0  0
   -2.5134    1.9395   -6.2295 C   0  0  0  0  0  0  0  0  0  0  0  0
   -3.5674    1.3948   -5.5180 C   0  0  0  0  0  0  0  0  0  0  0  0
   -3.4251    0.1179   -4.9333 C   0  0  0  0  0  0  0  0  0  0  0  0
   -2.1382   -1.5712   -4.5976 H   0  0  0  0  0  0  0  0  0  0  0  0
   -0.1954   -0.5730   -5.8387 H   0  0  0  0  0  0  0  0  0  0  0  0
   -2.6021    2.9160   -6.6920 H   0  0  0  0  0  0  0  0  0  0  0  0
   -4.4876    1.9559   -5.4201 H   0  0  0  0  0  0  0  0  0  0  0  0
   -0.3132    1.7708   -7.0998 N   0  0  0  0  0  0  0  0  0  0  0  0
    0.4668    2.2206   -7.7681 N   0  0  0  0  0  0  0  0  0  0  0  0
    2.4375   -0.0562   -6.7225 S   0  0  0  0  0  0  0  0  0  0  0  0
    4.2016    0.3680   -6.3321 C   0  0  0  0  0  0  0  0  0  0  0  0
    2.1854    0.6193   -8.0345 O   0  0  0  0  0  0  0  0  0  0  0  0
    1.6694    0.5735   -5.6111 O   0  0  0  0  0  0  0  0  0  0  0  0
    2.3908   -1.5256   -6.7570 O   0  0  0  0  0  0  0  0  0  0  0  0
    5.0220   -0.1203   -7.2717 F   0  0  0  0  0  0  0  0  0  0  0  0
    4.3629    1.7000   -6.2769 F   0  0  0  0  0  0  0  0  0  0  0  0
    4.5532   -0.1495   -5.1465 F   0  0  0  0  0  0  0  0  0  0  0  0
   -4.3837   -0.4988   -4.2286 O   0  0  0  0  0  0  0  0  0  0  0  0
   -5.6428    0.1484   -4.0257 C   0  0  0  0  0  0  0  0  0  0  0  0
   -6.2345   -0.5450   -3.4287 H   0  0  0  0  0  0  0  0  0  0  0  0
   -6.1489    0.3340   -4.9793 H   0  0  0  0  0  0  0  0  0  0  0  0
   -5.5186    1.0892   -3.4786 H   0  0  0  0  0  0  0  0  0  0  0  0
  1  6  1  0  0  0  0
  1  7  1  0  0  0  0
  2  1  2  0  0  0  0
  3  4  2  0  0  0  0
  3  2  1  0  0  0  0
  4  5  1  0  0  0  0
  5 10  1  0  0  0  0
  5  6  2  0  0  0  0
  6 21  1  0  0  0  0
  8  2  1  0  0  0  0
  9  4  1  0  0  0  0
 11  3  1  0  0  0  0
 12 11  1  0  0  0  0
 13 14  1  0  0  0  0
 13 16  1  0  0  0  0
 14 19  1  0  0  0  0
 14 20  1  0  0  0  0
 15 13  2  0  0  0  0
 17 13  2  0  0  0  0
 18 14  1  0  0  0  0
 21 22  1  0  0  0  0
 22 25  1  0  0  0  0
 22 23  1  0  0  0  0
 24 22  1  0  0  0  0
M  RAD  3  11   2  12   3  16   2
M  END
