Coordinates from ORCA-job p-CH3O-Ph-N2-X-OTf-B3LYPG-6-31G_dp-scan-d09-49-n400
 OpenBabel08281820593D

 25 24  0  0  0  0  0  0  0  0999 V2000
   -2.1281   -0.6324   -5.2659 C   0  0  0  0  0  0  0  0  0  0  0  0
   -1.1449   -0.1027   -6.0737 C   0  0  0  0  0  0  0  0  0  0  0  0
   -1.3779    1.1767   -6.6293 C   0  0  0  0  0  0  0  0  0  0  0  0
   -2.5529    1.9087   -6.3799 C   0  0  0  0  0  0  0  0  0  0  0  0
   -3.5199    1.3636   -5.5552 C   0  0  0  0  0  0  0  0  0  0  0  0
   -3.3116    0.0862   -4.9910 C   0  0  0  0  0  0  0  0  0  0  0  0
   -2.0013   -1.6094   -4.8145 H   0  0  0  0  0  0  0  0  0  0  0  0
   -0.2196   -0.6381   -6.2712 H   0  0  0  0  0  0  0  0  0  0  0  0
   -2.6899    2.8881   -6.8241 H   0  0  0  0  0  0  0  0  0  0  0  0
   -4.4229    1.9247   -5.3542 H   0  0  0  0  0  0  0  0  0  0  0  0
   -0.4457    1.7490   -7.4578 N   0  0  0  0  0  0  0  0  0  0  0  0
    0.3184    2.1833   -8.1530 N   0  0  0  0  0  0  0  0  0  0  0  0
    2.2981    0.2488   -6.6389 S   0  0  0  0  0  0  0  0  0  0  0  0
    4.0556    0.2308   -6.0408 C   0  0  0  0  0  0  0  0  0  0  0  0
    2.3722    0.8926   -7.9842 O   0  0  0  0  0  0  0  0  0  0  0  0
    1.5688    1.0744   -5.6409 O   0  0  0  0  0  0  0  0  0  0  0  0
    1.8921   -1.1760   -6.6586 O   0  0  0  0  0  0  0  0  0  0  0  0
    4.8269   -0.4857   -6.8689 F   0  0  0  0  0  0  0  0  0  0  0  0
    4.5412    1.4789   -5.9763 F   0  0  0  0  0  0  0  0  0  0  0  0
    4.1209   -0.3133   -4.8171 F   0  0  0  0  0  0  0  0  0  0  0  0
   -4.1837   -0.5295   -4.1812 O   0  0  0  0  0  0  0  0  0  0  0  0
   -5.4052    0.1236   -3.8257 C   0  0  0  0  0  0  0  0  0  0  0  0
   -5.9216   -0.5668   -3.1592 H   0  0  0  0  0  0  0  0  0  0  0  0
   -6.0244    0.3107   -4.7097 H   0  0  0  0  0  0  0  0  0  0  0  0
   -5.2106    1.0640   -3.2986 H   0  0  0  0  0  0  0  0  0  0  0  0
  1  6  1  0  0  0  0
  1  7  1  0  0  0  0
  2  1  2  0  0  0  0
  3  4  2  0  0  0  0
  3  2  1  0  0  0  0
  4  5  1  0  0  0  0
  5 10  1  0  0  0  0
  5  6  2  0  0  0  0
  6 21  1  0  0  0  0
  8  2  1  0  0  0  0
  9  4  1  0  0  0  0
 11  3  1  0  0  0  0
 12 11  1  0  0  0  0
 13 14  1  0  0  0  0
 13 16  1  0  0  0  0
 14 19  1  0  0  0  0
 14 20  1  0  0  0  0
 15 13  2  0  0  0  0
 17 13  2  0  0  0  0
 18 14  1  0  0  0  0
 21 22  1  0  0  0  0
 22 25  1  0  0  0  0
 22 23  1  0  0  0  0
 24 22  1  0  0  0  0
M  RAD  3  11   2  12   3  16   2
M  END
