Coordinates from ORCA-job p-CH3O-Ph-N2-X-OTf-B3LYPG-6-31G_dp-scan-d09-49-n400
 OpenBabel08281820593D

 25 24  0  0  0  0  0  0  0  0999 V2000
   -1.9785   -0.2838   -4.9088 C   0  0  0  0  0  0  0  0  0  0  0  0
   -0.9925    0.4535   -5.5315 C   0  0  0  0  0  0  0  0  0  0  0  0
   -1.4037    1.6087   -6.2348 C   0  0  0  0  0  0  0  0  0  0  0  0
   -2.7439    2.0270   -6.3106 C   0  0  0  0  0  0  0  0  0  0  0  0
   -3.7132    1.2665   -5.6835 C   0  0  0  0  0  0  0  0  0  0  0  0
   -3.3344    0.1022   -4.9774 C   0  0  0  0  0  0  0  0  0  0  0  0
   -1.7231   -1.1767   -4.3492 H   0  0  0  0  0  0  0  0  0  0  0  0
    0.0705    0.1774   -5.4599 H   0  0  0  0  0  0  0  0  0  0  0  0
   -3.0075    2.9257   -6.8573 H   0  0  0  0  0  0  0  0  0  0  0  0
   -4.7493    1.5750   -5.7395 H   0  0  0  0  0  0  0  0  0  0  0  0
   -0.4493    2.3681   -6.8705 N   0  0  0  0  0  0  0  0  0  0  0  0
    0.4694    2.7994   -7.3525 N   0  0  0  0  0  0  0  0  0  0  0  0
    2.6350    0.7150   -6.1513 S   0  0  0  0  0  0  0  0  0  0  0  0
    3.9820   -0.4316   -6.7186 C   0  0  0  0  0  0  0  0  0  0  0  0
    1.8402    0.9334   -7.4092 O   0  0  0  0  0  0  0  0  0  0  0  0
    3.3218    1.9087   -5.6393 O   0  0  0  0  0  0  0  0  0  0  0  0
    1.8777   -0.0864   -5.1507 O   0  0  0  0  0  0  0  0  0  0  0  0
    3.4591   -1.5586   -7.2246 F   0  0  0  0  0  0  0  0  0  0  0  0
    4.7259    0.1546   -7.6657 F   0  0  0  0  0  0  0  0  0  0  0  0
    4.7766   -0.7561   -5.6897 F   0  0  0  0  0  0  0  0  0  0  0  0
   -4.1953   -0.6978   -4.3334 O   0  0  0  0  0  0  0  0  0  0  0  0
   -5.5911   -0.3879   -4.3370 C   0  0  0  0  0  0  0  0  0  0  0  0
   -6.0668   -1.1750   -3.7531 H   0  0  0  0  0  0  0  0  0  0  0  0
   -5.9941   -0.3941   -5.3555 H   0  0  0  0  0  0  0  0  0  0  0  0
   -5.7811    0.5828   -3.8663 H   0  0  0  0  0  0  0  0  0  0  0  0
  1  7  1  0  0  0  0
  2  8  1  0  0  0  0
  2  1  2  0  0  0  0
  3  2  1  0  0  0  0
  4  3  2  0  0  0  0
  4  5  1  0  0  0  0
  5  6  2  0  0  0  0
  6  1  1  0  0  0  0
  6 21  1  0  0  0  0
  9  4  1  0  0  0  0
 10  5  1  0  0  0  0
 11  3  1  0  0  0  0
 12 11  1  0  0  0  0
 13 16  2  0  0  0  0
 13 17  1  0  0  0  0
 14 13  1  0  0  0  0
 14 20  1  0  0  0  0
 15 13  2  0  0  0  0
 18 14  1  0  0  0  0
 19 14  1  0  0  0  0
 22 21  1  0  0  0  0
 22 25  1  0  0  0  0
 22 23  1  0  0  0  0
 24 22  1  0  0  0  0
M  RAD  3  11   2  12   3  17   2
M  END
