Coordinates from ORCA-job p-CH3O-Ph-N2-X-OTf-B3LYPG-6-31G_dp-scan-d09-49-n400
 OpenBabel08281820593D

 25 24  0  0  0  0  0  0  0  0999 V2000
   -2.0586   -0.3925   -4.9981 C   0  0  0  0  0  0  0  0  0  0  0  0
   -1.0487    0.2964   -5.6368 C   0  0  0  0  0  0  0  0  0  0  0  0
   -1.3969    1.5065   -6.2794 C   0  0  0  0  0  0  0  0  0  0  0  0
   -2.7045    2.0206   -6.2773 C   0  0  0  0  0  0  0  0  0  0  0  0
   -3.7025    1.3091   -5.6360 C   0  0  0  0  0  0  0  0  0  0  0  0
   -3.3838    0.0936   -4.9918 C   0  0  0  0  0  0  0  0  0  0  0  0
   -1.8465   -1.3225   -4.4831 H   0  0  0  0  0  0  0  0  0  0  0  0
   -0.0171   -0.0623   -5.6183 H   0  0  0  0  0  0  0  0  0  0  0  0
   -2.9226    2.9579   -6.7768 H   0  0  0  0  0  0  0  0  0  0  0  0
   -4.7135    1.6956   -5.6332 H   0  0  0  0  0  0  0  0  0  0  0  0
   -0.4203    2.2243   -6.9325 N   0  0  0  0  0  0  0  0  0  0  0  0
    0.5279    2.5782   -7.4256 N   0  0  0  0  0  0  0  0  0  0  0  0
    2.5657    0.5854   -6.1525 S   0  0  0  0  0  0  0  0  0  0  0  0
    4.1395   -0.2422   -6.6889 C   0  0  0  0  0  0  0  0  0  0  0  0
    1.7859    0.6839   -7.4392 O   0  0  0  0  0  0  0  0  0  0  0  0
    2.9690    1.8882   -5.5993 O   0  0  0  0  0  0  0  0  0  0  0  0
    1.9485   -0.3742   -5.2040 O   0  0  0  0  0  0  0  0  0  0  0  0
    3.8775   -1.4366   -7.2381 F   0  0  0  0  0  0  0  0  0  0  0  0
    4.7786    0.5120   -7.5931 F   0  0  0  0  0  0  0  0  0  0  0  0
    4.9467   -0.4239   -5.6354 F   0  0  0  0  0  0  0  0  0  0  0  0
   -4.2737   -0.6683   -4.3401 O   0  0  0  0  0  0  0  0  0  0  0  0
   -5.6415   -0.2580   -4.2703 C   0  0  0  0  0  0  0  0  0  0  0  0
   -6.1496   -1.0312   -3.6948 H   0  0  0  0  0  0  0  0  0  0  0  0
   -6.0862   -0.1946   -5.2694 H   0  0  0  0  0  0  0  0  0  0  0  0
   -5.7390    0.7045   -3.7562 H   0  0  0  0  0  0  0  0  0  0  0  0
  1  6  1  0  0  0  0
  1  7  1  0  0  0  0
  2  8  1  0  0  0  0
  2  1  2  0  0  0  0
  3  4  2  0  0  0  0
  3  2  1  0  0  0  0
  4  5  1  0  0  0  0
  5 10  1  0  0  0  0
  5  6  2  0  0  0  0
  6 21  1  0  0  0  0
  9  4  1  0  0  0  0
 11  3  1  0  0  0  0
 12 11  1  0  0  0  0
 13 16  2  0  0  0  0
 13 17  1  0  0  0  0
 14 13  1  0  0  0  0
 14 20  1  0  0  0  0
 15 13  2  0  0  0  0
 18 14  1  0  0  0  0
 19 14  1  0  0  0  0
 21 22  1  0  0  0  0
 22 25  1  0  0  0  0
 22 23  1  0  0  0  0
 24 22  1  0  0  0  0
M  RAD  3  11   2  12   3  17   2
M  END
