Coordinates from ORCA-job p-CH3O-Ph-N2-X-OTf-B3LYPG-6-31G_dp-scan-d09-49-n400
 OpenBabel08281820593D

 25 24  0  0  0  0  0  0  0  0999 V2000
   -2.2193   -0.5062   -4.8486 C   0  0  0  0  0  0  0  0  0  0  0  0
   -1.1178    0.0217   -5.4885 C   0  0  0  0  0  0  0  0  0  0  0  0
   -1.2798    1.2506   -6.1639 C   0  0  0  0  0  0  0  0  0  0  0  0
   -2.5045    1.9428   -6.1950 C   0  0  0  0  0  0  0  0  0  0  0  0
   -3.5981    1.3945   -5.5495 C   0  0  0  0  0  0  0  0  0  0  0  0
   -3.4620    0.1629   -4.8720 C   0  0  0  0  0  0  0  0  0  0  0  0
   -2.1499   -1.4449   -4.3113 H   0  0  0  0  0  0  0  0  0  0  0  0
   -0.1288   -0.4343   -5.4657 H   0  0  0  0  0  0  0  0  0  0  0  0
   -2.5864    2.8860   -6.7235 H   0  0  0  0  0  0  0  0  0  0  0  0
   -4.5445    1.9190   -5.5717 H   0  0  0  0  0  0  0  0  0  0  0  0
   -0.2228    1.8085   -6.8455 N   0  0  0  0  0  0  0  0  0  0  0  0
    0.6205    2.2321   -7.4518 N   0  0  0  0  0  0  0  0  0  0  0  0
    2.5082   -0.2727   -6.7980 S   0  0  0  0  0  0  0  0  0  0  0  0
    4.2056    0.4260   -6.5240 C   0  0  0  0  0  0  0  0  0  0  0  0
    2.0263    0.4473   -8.0199 O   0  0  0  0  0  0  0  0  0  0  0  0
    1.7707    0.1548   -5.5728 O   0  0  0  0  0  0  0  0  0  0  0  0
    2.7005   -1.7176   -6.9574 O   0  0  0  0  0  0  0  0  0  0  0  0
    4.9998    0.1620   -7.5698 F   0  0  0  0  0  0  0  0  0  0  0  0
    4.1411    1.7599   -6.3675 F   0  0  0  0  0  0  0  0  0  0  0  0
    4.7594   -0.1013   -5.4238 F   0  0  0  0  0  0  0  0  0  0  0  0
   -4.4581   -0.4486   -4.2155 O   0  0  0  0  0  0  0  0  0  0  0  0
   -5.7554    0.1520   -4.1757 C   0  0  0  0  0  0  0  0  0  0  0  0
   -6.3744   -0.5285   -3.5920 H   0  0  0  0  0  0  0  0  0  0  0  0
   -6.1739    0.2540   -5.1830 H   0  0  0  0  0  0  0  0  0  0  0  0
   -5.7223    1.1300   -3.6836 H   0  0  0  0  0  0  0  0  0  0  0  0
  1  7  1  0  0  0  0
  2  8  1  0  0  0  0
  2  1  2  0  0  0  0
  3  2  1  0  0  0  0
  4  3  2  0  0  0  0
  4  5  1  0  0  0  0
  5  6  2  0  0  0  0
  6  1  1  0  0  0  0
  6 21  1  0  0  0  0
  9  4  1  0  0  0  0
 10  5  1  0  0  0  0
 11  3  1  0  0  0  0
 12 11  1  0  0  0  0
 13 14  1  0  0  0  0
 13 16  1  0  0  0  0
 14 19  1  0  0  0  0
 14 20  1  0  0  0  0
 15 13  2  0  0  0  0
 17 13  2  0  0  0  0
 18 14  1  0  0  0  0
 21 22  1  0  0  0  0
 22 25  1  0  0  0  0
 22 23  1  0  0  0  0
 24 22  1  0  0  0  0
M  RAD  3  11   2  12   3  16   2
M  END
