Coordinates from ORCA-job p-CH3O-Ph-N2-X-OTf-B3LYPG-6-31G_dp-scan-d09-49-n400
 OpenBabel08281820593D

 25 24  0  0  0  0  0  0  0  0999 V2000
   -2.3792   -0.8334   -5.0773 C   0  0  0  0  0  0  0  0  0  0  0  0
   -1.2866   -0.5792   -5.8806 C   0  0  0  0  0  0  0  0  0  0  0  0
   -1.2020    0.6787   -6.5067 C   0  0  0  0  0  0  0  0  0  0  0  0
   -2.1879    1.6677   -6.3280 C   0  0  0  0  0  0  0  0  0  0  0  0
   -3.2712    1.4026   -5.5084 C   0  0  0  0  0  0  0  0  0  0  0  0
   -3.3760    0.1451   -4.8783 C   0  0  0  0  0  0  0  0  0  0  0  0
   -2.4877   -1.7884   -4.5765 H   0  0  0  0  0  0  0  0  0  0  0  0
   -0.5026   -1.3077   -6.0279 H   0  0  0  0  0  0  0  0  0  0  0  0
   -2.0918    2.6268   -6.8247 H   0  0  0  0  0  0  0  0  0  0  0  0
   -4.0247    2.1662   -5.3637 H   0  0  0  0  0  0  0  0  0  0  0  0
   -0.1587    1.0004   -7.3541 N   0  0  0  0  0  0  0  0  0  0  0  0
    0.5061    1.4931   -8.1155 N   0  0  0  0  0  0  0  0  0  0  0  0
    2.8488   -0.3740   -7.1372 S   0  0  0  0  0  0  0  0  0  0  0  0
    3.3802    0.9470   -5.9435 C   0  0  0  0  0  0  0  0  0  0  0  0
    2.5521    0.4051   -8.3783 O   0  0  0  0  0  0  0  0  0  0  0  0
    1.6009   -0.8851   -6.4979 O   0  0  0  0  0  0  0  0  0  0  0  0
    3.9921   -1.2861   -7.2166 O   0  0  0  0  0  0  0  0  0  0  0  0
    4.4614    1.5970   -6.3859 F   0  0  0  0  0  0  0  0  0  0  0  0
    2.3835    1.8535   -5.7856 F   0  0  0  0  0  0  0  0  0  0  0  0
    3.6549    0.4290   -4.7392 F   0  0  0  0  0  0  0  0  0  0  0  0
   -4.3855   -0.2143   -4.0715 O   0  0  0  0  0  0  0  0  0  0  0  0
   -5.4406    0.7131   -3.8040 C   0  0  0  0  0  0  0  0  0  0  0  0
   -6.1243    0.1926   -3.1339 H   0  0  0  0  0  0  0  0  0  0  0  0
   -5.9683    0.9872   -4.7241 H   0  0  0  0  0  0  0  0  0  0  0  0
   -5.0588    1.6133   -3.3106 H   0  0  0  0  0  0  0  0  0  0  0  0
  1  6  1  0  0  0  0
  1  7  1  0  0  0  0
  2  1  2  0  0  0  0
  3  4  2  0  0  0  0
  3  2  1  0  0  0  0
  4  5  1  0  0  0  0
  5 10  1  0  0  0  0
  5  6  2  0  0  0  0
  6 21  1  0  0  0  0
  8  2  1  0  0  0  0
  9  4  1  0  0  0  0
 11  3  1  0  0  0  0
 12 11  1  0  0  0  0
 13 16  1  0  0  0  0
 13 14  1  0  0  0  0
 14 19  1  0  0  0  0
 14 20  1  0  0  0  0
 15 13  2  0  0  0  0
 17 13  2  0  0  0  0
 18 14  1  0  0  0  0
 21 22  1  0  0  0  0
 22 25  1  0  0  0  0
 22 23  1  0  0  0  0
 24 22  1  0  0  0  0
M  RAD  3  11   2  12   3  16   2
M  END
