Coordinates from ORCA-job p-CH3O-Ph-N2-X-OTf-B3LYPG-6-31G_dp-scan-d09-49-n400
 OpenBabel08281820593D

 25 24  0  0  0  0  0  0  0  0999 V2000
   -2.1686   -0.6510   -5.2684 C   0  0  0  0  0  0  0  0  0  0  0  0
   -1.1697   -0.1279   -6.0609 C   0  0  0  0  0  0  0  0  0  0  0  0
   -1.3703    1.1640   -6.5986 C   0  0  0  0  0  0  0  0  0  0  0  0
   -2.5317    1.9153   -6.3447 C   0  0  0  0  0  0  0  0  0  0  0  0
   -3.5160    1.3778   -5.5350 C   0  0  0  0  0  0  0  0  0  0  0  0
   -3.3391    0.0877   -4.9903 C   0  0  0  0  0  0  0  0  0  0  0  0
   -2.0650   -1.6373   -4.8318 H   0  0  0  0  0  0  0  0  0  0  0  0
   -0.2552   -0.6769   -6.2561 H   0  0  0  0  0  0  0  0  0  0  0  0
   -2.6456    2.9040   -6.7748 H   0  0  0  0  0  0  0  0  0  0  0  0
   -4.4085    1.9546   -5.3313 H   0  0  0  0  0  0  0  0  0  0  0  0
   -0.4235    1.7291   -7.4161 N   0  0  0  0  0  0  0  0  0  0  0  0
    0.3441    2.1610   -8.1095 N   0  0  0  0  0  0  0  0  0  0  0  0
    2.3258    0.1695   -6.6510 S   0  0  0  0  0  0  0  0  0  0  0  0
    4.0853    0.2947   -6.0716 C   0  0  0  0  0  0  0  0  0  0  0  0
    2.3358    0.8236   -7.9951 O   0  0  0  0  0  0  0  0  0  0  0  0
    1.5484    0.9408   -5.6445 O   0  0  0  0  0  0  0  0  0  0  0  0
    2.0349   -1.2796   -6.6692 O   0  0  0  0  0  0  0  0  0  0  0  0
    4.9030   -0.3597   -6.9064 F   0  0  0  0  0  0  0  0  0  0  0  0
    4.4708    1.5781   -6.0141 F   0  0  0  0  0  0  0  0  0  0  0  0
    4.2075   -0.2388   -4.8473 F   0  0  0  0  0  0  0  0  0  0  0  0
   -4.2296   -0.5232   -4.1970 O   0  0  0  0  0  0  0  0  0  0  0  0
   -5.4409    0.1484   -3.8411 C   0  0  0  0  0  0  0  0  0  0  0  0
   -5.9771   -0.5423   -3.1909 H   0  0  0  0  0  0  0  0  0  0  0  0
   -6.0483    0.3626   -4.7272 H   0  0  0  0  0  0  0  0  0  0  0  0
   -5.2322    1.0759   -3.2969 H   0  0  0  0  0  0  0  0  0  0  0  0
  1  6  1  0  0  0  0
  1  7  1  0  0  0  0
  2  1  2  0  0  0  0
  3  4  2  0  0  0  0
  3  2  1  0  0  0  0
  4  5  1  0  0  0  0
  5 10  1  0  0  0  0
  5  6  2  0  0  0  0
  6 21  1  0  0  0  0
  8  2  1  0  0  0  0
  9  4  1  0  0  0  0
 11  3  1  0  0  0  0
 12 11  1  0  0  0  0
 13 14  1  0  0  0  0
 13 16  1  0  0  0  0
 14 19  1  0  0  0  0
 14 20  1  0  0  0  0
 15 13  2  0  0  0  0
 17 13  2  0  0  0  0
 18 14  1  0  0  0  0
 21 22  1  0  0  0  0
 22 25  1  0  0  0  0
 22 23  1  0  0  0  0
 24 22  1  0  0  0  0
M  RAD  3  11   2  12   3  16   2
M  END
