Coordinates from ORCA-job p-CH3O-Ph-N2-X-OTf-B3LYPG-6-31G_dp-scan-d09-49-n400
 OpenBabel08281820593D

 25 24  0  0  0  0  0  0  0  0999 V2000
   -1.6430    0.0493   -4.7956 C   0  0  0  0  0  0  0  0  0  0  0  0
   -0.7235    0.9384   -5.3477 C   0  0  0  0  0  0  0  0  0  0  0  0
   -1.3392    1.9433   -6.1352 C   0  0  0  0  0  0  0  0  0  0  0  0
   -2.7258    2.0954   -6.3820 C   0  0  0  0  0  0  0  0  0  0  0  0
   -3.5776    1.1799   -5.8068 C   0  0  0  0  0  0  0  0  0  0  0  0
   -3.0322    0.1443   -5.0033 C   0  0  0  0  0  0  0  0  0  0  0  0
   -1.2995   -0.7726   -4.1714 H   0  0  0  0  0  0  0  0  0  0  0  0
    0.7201    0.7842   -5.1381 H   0  0  0  0  0  0  0  0  0  0  0  0
   -3.1043    2.9012   -7.0040 H   0  0  0  0  0  0  0  0  0  0  0  0
   -4.6440    1.2597   -5.9761 H   0  0  0  0  0  0  0  0  0  0  0  0
   -0.5161    2.8727   -6.7194 N   0  0  0  0  0  0  0  0  0  0  0  0
    0.1743    3.6193   -7.1849 N   0  0  0  0  0  0  0  0  0  0  0  0
    2.7482    0.8614   -6.0988 S   0  0  0  0  0  0  0  0  0  0  0  0
    3.0027   -0.8724   -6.7157 C   0  0  0  0  0  0  0  0  0  0  0  0
    2.0654    1.5635   -7.1965 O   0  0  0  0  0  0  0  0  0  0  0  0
    4.0500    1.3266   -5.6395 O   0  0  0  0  0  0  0  0  0  0  0  0
    1.7747    0.6125   -4.9198 O   0  0  0  0  0  0  0  0  0  0  0  0
    1.8231   -1.4113   -7.0567 F   0  0  0  0  0  0  0  0  0  0  0  0
    3.7967   -0.8552   -7.7910 F   0  0  0  0  0  0  0  0  0  0  0  0
    3.5653   -1.6282   -5.7694 F   0  0  0  0  0  0  0  0  0  0  0  0
   -3.7837   -0.7945   -4.4011 O   0  0  0  0  0  0  0  0  0  0  0  0
   -5.2020   -0.7800   -4.5594 C   0  0  0  0  0  0  0  0  0  0  0  0
   -5.5707   -1.6301   -3.9857 H   0  0  0  0  0  0  0  0  0  0  0  0
   -5.4867   -0.9006   -5.6106 H   0  0  0  0  0  0  0  0  0  0  0  0
   -5.6377    0.1434   -4.1615 H   0  0  0  0  0  0  0  0  0  0  0  0
  1  7  1  0  0  0  0
  2  1  2  0  0  0  0
  3  2  1  0  0  0  0
  4  3  2  0  0  0  0
  4  5  1  0  0  0  0
  5  6  2  0  0  0  0
  6  1  1  0  0  0  0
  6 21  1  0  0  0  0
  8 17  1  0  0  0  0
  9  4  1  0  0  0  0
 10  5  1  0  0  0  0
 11  3  1  0  0  0  0
 12 11  1  0  0  0  0
 13 16  2  0  0  0  0
 13 17  1  0  0  0  0
 14 13  1  0  0  0  0
 14 20  1  0  0  0  0
 15 13  2  0  0  0  0
 18 14  1  0  0  0  0
 19 14  1  0  0  0  0
 22 21  1  0  0  0  0
 22 25  1  0  0  0  0
 22 23  1  0  0  0  0
 24 22  1  0  0  0  0
M  RAD  3   2   2  11   2  12   3
M  END
