Coordinates from ORCA-job p-CH3O-Ph-N2-X-OTf-B3LYPG-6-31G_dp-scan-d09-49-n400
 OpenBabel08281820593D

 25 24  0  0  0  0  0  0  0  0999 V2000
   -2.3227   -0.6505   -4.9296 C   0  0  0  0  0  0  0  0  0  0  0  0
   -1.1960   -0.2387   -5.6101 C   0  0  0  0  0  0  0  0  0  0  0  0
   -1.2346    1.0212   -6.2438 C   0  0  0  0  0  0  0  0  0  0  0  0
   -2.3670    1.8559   -6.1961 C   0  0  0  0  0  0  0  0  0  0  0  0
   -3.4886    1.4243   -5.5107 C   0  0  0  0  0  0  0  0  0  0  0  0
   -3.4738    0.1644   -4.8732 C   0  0  0  0  0  0  0  0  0  0  0  0
   -2.3439   -1.6077   -4.4218 H   0  0  0  0  0  0  0  0  0  0  0  0
   -0.2781   -0.8176   -5.6568 H   0  0  0  0  0  0  0  0  0  0  0  0
   -2.3572    2.8188   -6.6944 H   0  0  0  0  0  0  0  0  0  0  0  0
   -4.3635    2.0601   -5.4725 H   0  0  0  0  0  0  0  0  0  0  0  0
   -0.1498    1.4756   -6.9582 N   0  0  0  0  0  0  0  0  0  0  0  0
    0.6924    1.8751   -7.5845 N   0  0  0  0  0  0  0  0  0  0  0  0
    2.6933   -0.4920   -6.9513 S   0  0  0  0  0  0  0  0  0  0  0  0
    3.9288    0.7594   -6.3554 C   0  0  0  0  0  0  0  0  0  0  0  0
    2.1382    0.1534   -8.1841 O   0  0  0  0  0  0  0  0  0  0  0  0
    1.7013   -0.5115   -5.8379 O   0  0  0  0  0  0  0  0  0  0  0  0
    3.4655   -1.7164   -7.1739 O   0  0  0  0  0  0  0  0  0  0  0  0
    4.8924    0.9535   -7.2634 F   0  0  0  0  0  0  0  0  0  0  0  0
    3.3158    1.9437   -6.1347 F   0  0  0  0  0  0  0  0  0  0  0  0
    4.4958    0.3658   -5.2077 F   0  0  0  0  0  0  0  0  0  0  0  0
   -4.5068   -0.3435   -4.1860 O   0  0  0  0  0  0  0  0  0  0  0  0
   -5.7162    0.4099   -4.0636 C   0  0  0  0  0  0  0  0  0  0  0  0
   -6.3897   -0.2126   -3.4752 H   0  0  0  0  0  0  0  0  0  0  0  0
   -6.1613    0.6042   -5.0454 H   0  0  0  0  0  0  0  0  0  0  0  0
   -5.5401    1.3555   -3.5395 H   0  0  0  0  0  0  0  0  0  0  0  0
  1  6  1  0  0  0  0
  1  7  1  0  0  0  0
  2  1  2  0  0  0  0
  3  4  2  0  0  0  0
  3  2  1  0  0  0  0
  4  5  1  0  0  0  0
  5 10  1  0  0  0  0
  5  6  2  0  0  0  0
  6 21  1  0  0  0  0
  8  2  1  0  0  0  0
  9  4  1  0  0  0  0
 11  3  1  0  0  0  0
 12 11  1  0  0  0  0
 13 14  1  0  0  0  0
 13 16  1  0  0  0  0
 14 19  1  0  0  0  0
 14 20  1  0  0  0  0
 15 13  2  0  0  0  0
 17 13  2  0  0  0  0
 18 14  1  0  0  0  0
 21 22  1  0  0  0  0
 22 25  1  0  0  0  0
 22 23  1  0  0  0  0
 24 22  1  0  0  0  0
M  RAD  3  11   2  12   3  16   2
M  END
