Coordinates from ORCA-job p-CH3O-Ph-N2-X-OTf-B3LYPG-6-31G_dp-scan-d09-49-n400
 OpenBabel08281820593D

 25 24  0  0  0  0  0  0  0  0999 V2000
   -2.2523   -0.5503   -4.8780 C   0  0  0  0  0  0  0  0  0  0  0  0
   -1.1375   -0.0473   -5.5149 C   0  0  0  0  0  0  0  0  0  0  0  0
   -1.2611    1.2005   -6.1633 C   0  0  0  0  0  0  0  0  0  0  0  0
   -2.4609    1.9354   -6.1706 C   0  0  0  0  0  0  0  0  0  0  0  0
   -3.5688    1.4113   -5.5290 C   0  0  0  0  0  0  0  0  0  0  0  0
   -3.4712    0.1616   -4.8787 C   0  0  0  0  0  0  0  0  0  0  0  0
   -2.2121   -1.5017   -4.3604 H   0  0  0  0  0  0  0  0  0  0  0  0
   -0.1647   -0.5371   -5.5101 H   0  0  0  0  0  0  0  0  0  0  0  0
   -2.5133    2.8919   -6.6783 H   0  0  0  0  0  0  0  0  0  0  0  0
   -4.4966    1.9684   -5.5334 H   0  0  0  0  0  0  0  0  0  0  0  0
   -0.1885    1.7349   -6.8388 N   0  0  0  0  0  0  0  0  0  0  0  0
    0.6698    2.1359   -7.4400 N   0  0  0  0  0  0  0  0  0  0  0  0
    2.5470   -0.3609   -6.8144 S   0  0  0  0  0  0  0  0  0  0  0  0
    4.1461    0.5330   -6.5166 C   0  0  0  0  0  0  0  0  0  0  0  0
    1.9994    0.3126   -8.0357 O   0  0  0  0  0  0  0  0  0  0  0  0
    1.7553   -0.0287   -5.5941 O   0  0  0  0  0  0  0  0  0  0  0  0
    2.9103   -1.7700   -6.9857 O   0  0  0  0  0  0  0  0  0  0  0  0
    4.9801    0.3729   -7.5517 F   0  0  0  0  0  0  0  0  0  0  0  0
    3.9171    1.8502   -6.3582 F   0  0  0  0  0  0  0  0  0  0  0  0
    4.7456    0.0739   -5.4101 F   0  0  0  0  0  0  0  0  0  0  0  0
   -4.4840   -0.4295   -4.2288 O   0  0  0  0  0  0  0  0  0  0  0  0
   -5.7591    0.2151   -4.1660 C   0  0  0  0  0  0  0  0  0  0  0  0
   -6.3983   -0.4574   -3.5949 H   0  0  0  0  0  0  0  0  0  0  0  0
   -6.1794    0.3565   -5.1677 H   0  0  0  0  0  0  0  0  0  0  0  0
   -5.6887    1.1790   -3.6507 H   0  0  0  0  0  0  0  0  0  0  0  0
  1  7  1  0  0  0  0
  2  8  1  0  0  0  0
  2  1  2  0  0  0  0
  3  2  1  0  0  0  0
  4  3  2  0  0  0  0
  4  5  1  0  0  0  0
  5  6  2  0  0  0  0
  6  1  1  0  0  0  0
  6 21  1  0  0  0  0
  9  4  1  0  0  0  0
 10  5  1  0  0  0  0
 11  3  1  0  0  0  0
 12 11  1  0  0  0  0
 13 14  1  0  0  0  0
 13 16  1  0  0  0  0
 14 19  1  0  0  0  0
 14 20  1  0  0  0  0
 15 13  2  0  0  0  0
 17 13  2  0  0  0  0
 18 14  1  0  0  0  0
 21 22  1  0  0  0  0
 22 25  1  0  0  0  0
 22 23  1  0  0  0  0
 24 22  1  0  0  0  0
M  RAD  3  11   2  12   3  16   2
M  END
