Coordinates from ORCA-job p-CH3O-Ph-N2-X-OTf-B3LYPG-6-31G_dp-scan-d09-49-n400
 OpenBabel08281820593D

 25 24  0  0  0  0  0  0  0  0999 V2000
   -2.1245   -0.6317   -5.2695 C   0  0  0  0  0  0  0  0  0  0  0  0
   -1.1433   -0.1018   -6.0795 C   0  0  0  0  0  0  0  0  0  0  0  0
   -1.3792    1.1769   -6.6356 C   0  0  0  0  0  0  0  0  0  0  0  0
   -2.5550    1.9073   -6.3854 C   0  0  0  0  0  0  0  0  0  0  0  0
   -3.5198    1.3619   -5.5585 C   0  0  0  0  0  0  0  0  0  0  0  0
   -3.3083    0.0856   -4.9929 C   0  0  0  0  0  0  0  0  0  0  0  0
   -1.9957   -1.6080   -4.8172 H   0  0  0  0  0  0  0  0  0  0  0  0
   -0.2174   -0.6366   -6.2784 H   0  0  0  0  0  0  0  0  0  0  0  0
   -2.6944    2.8859   -6.8308 H   0  0  0  0  0  0  0  0  0  0  0  0
   -4.4234    1.9218   -5.3570 H   0  0  0  0  0  0  0  0  0  0  0  0
   -0.4487    1.7504   -7.4649 N   0  0  0  0  0  0  0  0  0  0  0  0
    0.3177    2.1879   -8.1557 N   0  0  0  0  0  0  0  0  0  0  0  0
    2.2934    0.2565   -6.6340 S   0  0  0  0  0  0  0  0  0  0  0  0
    4.0511    0.2257   -6.0360 C   0  0  0  0  0  0  0  0  0  0  0  0
    2.3733    0.8996   -7.9790 O   0  0  0  0  0  0  0  0  0  0  0  0
    1.5680    1.0851   -5.6360 O   0  0  0  0  0  0  0  0  0  0  0  0
    1.8775   -1.1658   -6.6545 O   0  0  0  0  0  0  0  0  0  0  0  0
    4.8166   -0.4959   -6.8656 F   0  0  0  0  0  0  0  0  0  0  0  0
    4.5460    1.4699   -5.9701 F   0  0  0  0  0  0  0  0  0  0  0  0
    4.1128   -0.3203   -4.8131 F   0  0  0  0  0  0  0  0  0  0  0  0
   -4.1779   -0.5303   -4.1806 O   0  0  0  0  0  0  0  0  0  0  0  0
   -5.3986    0.1222   -3.8219 C   0  0  0  0  0  0  0  0  0  0  0  0
   -5.9117   -0.5669   -3.1517 H   0  0  0  0  0  0  0  0  0  0  0  0
   -6.0215    0.3065   -4.7039 H   0  0  0  0  0  0  0  0  0  0  0  0
   -5.2030    1.0642   -3.2981 H   0  0  0  0  0  0  0  0  0  0  0  0
  1  6  1  0  0  0  0
  1  7  1  0  0  0  0
  2  1  2  0  0  0  0
  3  4  2  0  0  0  0
  3  2  1  0  0  0  0
  4  5  1  0  0  0  0
  5 10  1  0  0  0  0
  5  6  2  0  0  0  0
  6 21  1  0  0  0  0
  8  2  1  0  0  0  0
  9  4  1  0  0  0  0
 11  3  1  0  0  0  0
 12 11  1  0  0  0  0
 13 14  1  0  0  0  0
 13 16  1  0  0  0  0
 14 19  1  0  0  0  0
 14 20  1  0  0  0  0
 15 13  2  0  0  0  0
 17 13  2  0  0  0  0
 18 14  1  0  0  0  0
 21 22  1  0  0  0  0
 22 25  1  0  0  0  0
 22 23  1  0  0  0  0
 24 22  1  0  0  0  0
M  RAD  3  11   2  12   3  16   2
M  END
