Coordinates from ORCA-job p-CH3O-Ph-N2-X-OTf-B3LYPG-6-31G_dp-scan-d09-49-n400
 OpenBabel08281820593D

 25 24  0  0  0  0  0  0  0  0999 V2000
   -2.3590   -0.8083   -5.0515 C   0  0  0  0  0  0  0  0  0  0  0  0
   -1.2655   -0.5388   -5.8484 C   0  0  0  0  0  0  0  0  0  0  0  0
   -1.2035    0.7145   -6.4867 C   0  0  0  0  0  0  0  0  0  0  0  0
   -2.2120    1.6840   -6.3275 C   0  0  0  0  0  0  0  0  0  0  0  0
   -3.2969    1.4029   -5.5155 C   0  0  0  0  0  0  0  0  0  0  0  0
   -3.3793    0.1497   -4.8728 C   0  0  0  0  0  0  0  0  0  0  0  0
   -2.4509   -1.7599   -4.5409 H   0  0  0  0  0  0  0  0  0  0  0  0
   -0.4595   -1.2463   -5.9832 H   0  0  0  0  0  0  0  0  0  0  0  0
   -2.1327    2.6398   -6.8335 H   0  0  0  0  0  0  0  0  0  0  0  0
   -4.0689    2.1504   -5.3860 H   0  0  0  0  0  0  0  0  0  0  0  0
   -0.1589    1.0483   -7.3273 N   0  0  0  0  0  0  0  0  0  0  0  0
    0.5152    1.5409   -8.0802 N   0  0  0  0  0  0  0  0  0  0  0  0
    2.8284   -0.3869   -7.1390 S   0  0  0  0  0  0  0  0  0  0  0  0
    3.4301    0.9213   -5.9651 C   0  0  0  0  0  0  0  0  0  0  0  0
    2.5319    0.3951   -8.3776 O   0  0  0  0  0  0  0  0  0  0  0  0
    1.5778   -0.8512   -6.4690 O   0  0  0  0  0  0  0  0  0  0  0  0
    3.9336   -1.3429   -7.2359 O   0  0  0  0  0  0  0  0  0  0  0  0
    4.5237    1.5304   -6.4344 F   0  0  0  0  0  0  0  0  0  0  0  0
    2.4685    1.8616   -5.7935 F   0  0  0  0  0  0  0  0  0  0  0  0
    3.7120    0.4009   -4.7633 F   0  0  0  0  0  0  0  0  0  0  0  0
   -4.3883   -0.2234   -4.0718 O   0  0  0  0  0  0  0  0  0  0  0  0
   -5.4663    0.6827   -3.8239 C   0  0  0  0  0  0  0  0  0  0  0  0
   -6.1442    0.1542   -3.1542 H   0  0  0  0  0  0  0  0  0  0  0  0
   -5.9916    0.9349   -4.7516 H   0  0  0  0  0  0  0  0  0  0  0  0
   -5.1093    1.5966   -3.3371 H   0  0  0  0  0  0  0  0  0  0  0  0
  1  6  1  0  0  0  0
  1  7  1  0  0  0  0
  2  1  2  0  0  0  0
  3  4  2  0  0  0  0
  3  2  1  0  0  0  0
  4  5  1  0  0  0  0
  5 10  1  0  0  0  0
  5  6  2  0  0  0  0
  6 21  1  0  0  0  0
  8  2  1  0  0  0  0
  9  4  1  0  0  0  0
 11  3  1  0  0  0  0
 12 11  1  0  0  0  0
 13 16  1  0  0  0  0
 13 14  1  0  0  0  0
 14 19  1  0  0  0  0
 14 20  1  0  0  0  0
 15 13  2  0  0  0  0
 17 13  2  0  0  0  0
 18 14  1  0  0  0  0
 21 22  1  0  0  0  0
 22 25  1  0  0  0  0
 22 23  1  0  0  0  0
 24 22  1  0  0  0  0
M  RAD  3  11   2  12   3  16   2
M  END
