Coordinates from ORCA-job p-CH3O-Ph-N2-X-OTf-B3LYPG-6-31G_dp-scan-d09-49-n400
 OpenBabel08281820593D

 25 24  0  0  0  0  0  0  0  0999 V2000
   -2.1842   -0.4805   -4.8577 C   0  0  0  0  0  0  0  0  0  0  0  0
   -1.0975    0.0733   -5.5005 C   0  0  0  0  0  0  0  0  0  0  0  0
   -1.2914    1.2968   -6.1783 C   0  0  0  0  0  0  0  0  0  0  0  0
   -2.5331    1.9580   -6.2073 C   0  0  0  0  0  0  0  0  0  0  0  0
   -3.6112    1.3846   -5.5575 C   0  0  0  0  0  0  0  0  0  0  0  0
   -3.4432    0.1575   -4.8790 C   0  0  0  0  0  0  0  0  0  0  0  0
   -2.0901   -1.4167   -4.3198 H   0  0  0  0  0  0  0  0  0  0  0  0
   -0.0996   -0.3600   -5.4743 H   0  0  0  0  0  0  0  0  0  0  0  0
   -2.6397    2.8978   -6.7375 H   0  0  0  0  0  0  0  0  0  0  0  0
   -4.5700    1.8860   -5.5775 H   0  0  0  0  0  0  0  0  0  0  0  0
   -0.2527    1.8780   -6.8682 N   0  0  0  0  0  0  0  0  0  0  0  0
    0.5773    2.3160   -7.4819 N   0  0  0  0  0  0  0  0  0  0  0  0
    2.4594   -0.1718   -6.7522 S   0  0  0  0  0  0  0  0  0  0  0  0
    4.2330    0.3246   -6.5243 C   0  0  0  0  0  0  0  0  0  0  0  0
    2.0455    0.5499   -7.9975 O   0  0  0  0  0  0  0  0  0  0  0  0
    1.7910    0.3813   -5.5384 O   0  0  0  0  0  0  0  0  0  0  0  0
    2.4733   -1.6362   -6.8527 O   0  0  0  0  0  0  0  0  0  0  0  0
    4.9732   -0.0816   -7.5643 F   0  0  0  0  0  0  0  0  0  0  0  0
    4.3364    1.6607   -6.4261 F   0  0  0  0  0  0  0  0  0  0  0  0
    4.7319   -0.2208   -5.4065 F   0  0  0  0  0  0  0  0  0  0  0  0
   -4.4222   -0.4778   -4.2199 O   0  0  0  0  0  0  0  0  0  0  0  0
   -5.7345    0.0893   -4.1794 C   0  0  0  0  0  0  0  0  0  0  0  0
   -6.3349   -0.6056   -3.5934 H   0  0  0  0  0  0  0  0  0  0  0  0
   -6.1568    0.1784   -5.1863 H   0  0  0  0  0  0  0  0  0  0  0  0
   -5.7257    1.0689   -3.6894 H   0  0  0  0  0  0  0  0  0  0  0  0
  1  7  1  0  0  0  0
  2  8  1  0  0  0  0
  2  1  2  0  0  0  0
  3  2  1  0  0  0  0
  4  3  2  0  0  0  0
  4  5  1  0  0  0  0
  5  6  2  0  0  0  0
  6  1  1  0  0  0  0
  6 21  1  0  0  0  0
  9  4  1  0  0  0  0
 10  5  1  0  0  0  0
 11  3  1  0  0  0  0
 12 11  1  0  0  0  0
 13 14  1  0  0  0  0
 13 16  1  0  0  0  0
 14 19  1  0  0  0  0
 14 20  1  0  0  0  0
 15 13  2  0  0  0  0
 17 13  2  0  0  0  0
 18 14  1  0  0  0  0
 21 22  1  0  0  0  0
 22 25  1  0  0  0  0
 22 23  1  0  0  0  0
 24 22  1  0  0  0  0
M  RAD  3  11   2  12   3  16   2
M  END
