Coordinates from ORCA-job p-CH3O-Ph-N2-X-OTf-B3LYPG-6-31G_dp-scan-d09-49-n400
 OpenBabel08281820593D

 25 24  0  0  0  0  0  0  0  0999 V2000
   -1.8578   -0.1462   -4.8217 C   0  0  0  0  0  0  0  0  0  0  0  0
   -0.9032    0.6546   -5.4158 C   0  0  0  0  0  0  0  0  0  0  0  0
   -1.3803    1.7495   -6.1726 C   0  0  0  0  0  0  0  0  0  0  0  0
   -2.7457    2.0522   -6.3324 C   0  0  0  0  0  0  0  0  0  0  0  0
   -3.6764    1.2283   -5.7301 C   0  0  0  0  0  0  0  0  0  0  0  0
   -3.2358    0.1195   -4.9696 C   0  0  0  0  0  0  0  0  0  0  0  0
   -1.5590   -1.0018   -4.2256 H   0  0  0  0  0  0  0  0  0  0  0  0
    0.1926    0.4675   -5.2947 H   0  0  0  0  0  0  0  0  0  0  0  0
   -3.0560    2.9085   -6.9215 H   0  0  0  0  0  0  0  0  0  0  0  0
   -4.7310    1.4428   -5.8482 H   0  0  0  0  0  0  0  0  0  0  0  0
   -0.4597    2.5648   -6.7828 N   0  0  0  0  0  0  0  0  0  0  0  0
    0.4009    3.1064   -7.2521 N   0  0  0  0  0  0  0  0  0  0  0  0
    2.6907    0.8146   -6.1343 S   0  0  0  0  0  0  0  0  0  0  0  0
    3.6630   -0.6424   -6.7520 C   0  0  0  0  0  0  0  0  0  0  0  0
    1.8975    1.2178   -7.3376 O   0  0  0  0  0  0  0  0  0  0  0  0
    3.6904    1.7827   -5.6706 O   0  0  0  0  0  0  0  0  0  0  0  0
    1.8209    0.2202   -5.0723 O   0  0  0  0  0  0  0  0  0  0  0  0
    2.8384   -1.6026   -7.2021 F   0  0  0  0  0  0  0  0  0  0  0  0
    4.4718   -0.2755   -7.7550 F   0  0  0  0  0  0  0  0  0  0  0  0
    4.4109   -1.1563   -5.7661 F   0  0  0  0  0  0  0  0  0  0  0  0
   -4.0593   -0.7342   -4.3470 O   0  0  0  0  0  0  0  0  0  0  0  0
   -5.4746   -0.5505   -4.4348 C   0  0  0  0  0  0  0  0  0  0  0  0
   -5.9112   -1.3639   -3.8566 H   0  0  0  0  0  0  0  0  0  0  0  0
   -5.8170   -0.6152   -5.4731 H   0  0  0  0  0  0  0  0  0  0  0  0
   -5.7758    0.4094   -4.0014 H   0  0  0  0  0  0  0  0  0  0  0  0
  1  7  1  0  0  0  0
  2  8  1  0  0  0  0
  2  1  2  0  0  0  0
  3  2  1  0  0  0  0
  4  3  2  0  0  0  0
  4  5  1  0  0  0  0
  5  6  2  0  0  0  0
  6  1  1  0  0  0  0
  6 21  1  0  0  0  0
  9  4  1  0  0  0  0
 10  5  1  0  0  0  0
 11  3  1  0  0  0  0
 12 11  1  0  0  0  0
 13 16  2  0  0  0  0
 13 17  1  0  0  0  0
 14 13  1  0  0  0  0
 14 20  1  0  0  0  0
 15 13  2  0  0  0  0
 18 14  1  0  0  0  0
 19 14  1  0  0  0  0
 22 21  1  0  0  0  0
 22 25  1  0  0  0  0
 22 23  1  0  0  0  0
 24 22  1  0  0  0  0
M  RAD  3  11   2  12   3  17   2
M  END
