Coordinates from ORCA-job p-CH3O-Ph-N2-X-OTf-B3LYPG-6-31G_dp-scan-d09-49-n400
 OpenBabel08281820593D

 25 24  0  0  0  0  0  0  0  0999 V2000
   -1.6532    0.0238   -4.7929 C   0  0  0  0  0  0  0  0  0  0  0  0
   -0.7315    0.9077   -5.3405 C   0  0  0  0  0  0  0  0  0  0  0  0
   -1.3227    1.9333   -6.1184 C   0  0  0  0  0  0  0  0  0  0  0  0
   -2.7071    2.1039   -6.3568 C   0  0  0  0  0  0  0  0  0  0  0  0
   -3.5710    1.1940   -5.7891 C   0  0  0  0  0  0  0  0  0  0  0  0
   -3.0419    0.1416   -4.9979 C   0  0  0  0  0  0  0  0  0  0  0  0
   -1.3134   -0.8072   -4.1802 H   0  0  0  0  0  0  0  0  0  0  0  0
    0.5973    0.7591   -5.1658 H   0  0  0  0  0  0  0  0  0  0  0  0
   -3.0759    2.9210   -6.9693 H   0  0  0  0  0  0  0  0  0  0  0  0
   -4.6362    1.2920   -5.9559 H   0  0  0  0  0  0  0  0  0  0  0  0
   -0.4869    2.8560   -6.6937 N   0  0  0  0  0  0  0  0  0  0  0  0
    0.2114    3.5976   -7.1538 N   0  0  0  0  0  0  0  0  0  0  0  0
    2.6953    0.8553   -6.1285 S   0  0  0  0  0  0  0  0  0  0  0  0
    3.0751   -0.8677   -6.7077 C   0  0  0  0  0  0  0  0  0  0  0  0
    1.9777    1.4821   -7.2554 O   0  0  0  0  0  0  0  0  0  0  0  0
    3.9684    1.4246   -5.6989 O   0  0  0  0  0  0  0  0  0  0  0  0
    1.7358    0.5767   -4.9636 O   0  0  0  0  0  0  0  0  0  0  0  0
    1.9388   -1.5020   -7.0372 F   0  0  0  0  0  0  0  0  0  0  0  0
    3.8682   -0.8223   -7.7840 F   0  0  0  0  0  0  0  0  0  0  0  0
    3.6895   -1.5625   -5.7451 F   0  0  0  0  0  0  0  0  0  0  0  0
   -3.8042   -0.7919   -4.4051 O   0  0  0  0  0  0  0  0  0  0  0  0
   -5.2232   -0.7580   -4.5626 C   0  0  0  0  0  0  0  0  0  0  0  0
   -5.6015   -1.6099   -3.9983 H   0  0  0  0  0  0  0  0  0  0  0  0
   -5.5084   -0.8633   -5.6151 H   0  0  0  0  0  0  0  0  0  0  0  0
   -5.6463    0.1664   -4.1541 H   0  0  0  0  0  0  0  0  0  0  0  0
  1  7  1  0  0  0  0
  2  1  2  0  0  0  0
  3  2  1  0  0  0  0
  4  3  2  0  0  0  0
  4  5  1  0  0  0  0
  5  6  2  0  0  0  0
  6  1  1  0  0  0  0
  6 21  1  0  0  0  0
  8 17  1  0  0  0  0
  9  4  1  0  0  0  0
 10  5  1  0  0  0  0
 11  3  1  0  0  0  0
 12 11  1  0  0  0  0
 13 16  2  0  0  0  0
 13 17  1  0  0  0  0
 14 13  1  0  0  0  0
 14 20  1  0  0  0  0
 15 13  2  0  0  0  0
 18 14  1  0  0  0  0
 19 14  1  0  0  0  0
 22 21  1  0  0  0  0
 22 25  1  0  0  0  0
 22 23  1  0  0  0  0
 24 22  1  0  0  0  0
M  RAD  3   2   2  11   2  12   3
M  END
