Coordinates from ORCA-job p-CH3O-Ph-N2-X-OTf-B3LYPG-6-31G_dp-scan-d09-49-n400
 OpenBabel08281820593D

 25 24  0  0  0  0  0  0  0  0999 V2000
   -2.1765   -0.4789   -4.8676 C   0  0  0  0  0  0  0  0  0  0  0  0
   -1.0937    0.0804   -5.5120 C   0  0  0  0  0  0  0  0  0  0  0  0
   -1.2939    1.3047   -6.1866 C   0  0  0  0  0  0  0  0  0  0  0  0
   -2.5381    1.9614   -6.2103 C   0  0  0  0  0  0  0  0  0  0  0  0
   -3.6121    1.3828   -5.5584 C   0  0  0  0  0  0  0  0  0  0  0  0
   -3.4377    0.1548   -4.8834 C   0  0  0  0  0  0  0  0  0  0  0  0
   -2.0773   -1.4160   -4.3323 H   0  0  0  0  0  0  0  0  0  0  0  0
   -0.0951   -0.3503   -5.4879 H   0  0  0  0  0  0  0  0  0  0  0  0
   -2.6496    2.9019   -6.7381 H   0  0  0  0  0  0  0  0  0  0  0  0
   -4.5727    1.8811   -5.5741 H   0  0  0  0  0  0  0  0  0  0  0  0
   -0.2600    1.8911   -6.8793 N   0  0  0  0  0  0  0  0  0  0  0  0
    0.5670    2.3310   -7.4955 N   0  0  0  0  0  0  0  0  0  0  0  0
    2.4479   -0.1465   -6.7395 S   0  0  0  0  0  0  0  0  0  0  0  0
    4.2347    0.3038   -6.5190 C   0  0  0  0  0  0  0  0  0  0  0  0
    2.0514    0.5700   -7.9935 O   0  0  0  0  0  0  0  0  0  0  0  0
    1.7944    0.4373   -5.5323 O   0  0  0  0  0  0  0  0  0  0  0  0
    2.4217   -1.6125   -6.8217 O   0  0  0  0  0  0  0  0  0  0  0  0
    4.9625   -0.1366   -7.5538 F   0  0  0  0  0  0  0  0  0  0  0  0
    4.3751    1.6374   -6.4382 F   0  0  0  0  0  0  0  0  0  0  0  0
    4.7187   -0.2408   -5.3942 F   0  0  0  0  0  0  0  0  0  0  0  0
   -4.4123   -0.4854   -4.2225 O   0  0  0  0  0  0  0  0  0  0  0  0
   -5.7263    0.0773   -4.1759 C   0  0  0  0  0  0  0  0  0  0  0  0
   -6.3222   -0.6207   -3.5889 H   0  0  0  0  0  0  0  0  0  0  0  0
   -6.1528    0.1669   -5.1810 H   0  0  0  0  0  0  0  0  0  0  0  0
   -5.7189    1.0560   -3.6840 H   0  0  0  0  0  0  0  0  0  0  0  0
  1  7  1  0  0  0  0
  2  8  1  0  0  0  0
  2  1  2  0  0  0  0
  3  2  1  0  0  0  0
  4  3  2  0  0  0  0
  4  5  1  0  0  0  0
  5  6  2  0  0  0  0
  6  1  1  0  0  0  0
  6 21  1  0  0  0  0
  9  4  1  0  0  0  0
 10  5  1  0  0  0  0
 11  3  1  0  0  0  0
 12 11  1  0  0  0  0
 13 14  1  0  0  0  0
 13 16  1  0  0  0  0
 14 19  1  0  0  0  0
 14 20  1  0  0  0  0
 15 13  2  0  0  0  0
 17 13  2  0  0  0  0
 18 14  1  0  0  0  0
 21 22  1  0  0  0  0
 22 25  1  0  0  0  0
 22 23  1  0  0  0  0
 24 22  1  0  0  0  0
M  RAD  3  11   2  12   3  16   2
M  END
