Coordinates from ORCA-job p-CH3O-Ph-N2-X-OTf-B3LYPG-6-31G_dp-scan-d09-49-n400
 OpenBabel08281820593D

 25 24  0  0  0  0  0  0  0  0999 V2000
   -2.1887   -0.5248   -4.9457 C   0  0  0  0  0  0  0  0  0  0  0  0
   -1.1135    0.0248   -5.6106 C   0  0  0  0  0  0  0  0  0  0  0  0
   -1.3044    1.2699   -6.2496 C   0  0  0  0  0  0  0  0  0  0  0  0
   -2.5333    1.9545   -6.2176 C   0  0  0  0  0  0  0  0  0  0  0  0
   -3.5994    1.3873   -5.5429 C   0  0  0  0  0  0  0  0  0  0  0  0
   -3.4335    0.1395   -4.9034 C   0  0  0  0  0  0  0  0  0  0  0  0
   -2.0950   -1.4766   -4.4362 H   0  0  0  0  0  0  0  0  0  0  0  0
   -0.1288   -0.4327   -5.6224 H   0  0  0  0  0  0  0  0  0  0  0  0
   -2.6389    2.9095   -6.7198 H   0  0  0  0  0  0  0  0  0  0  0  0
   -4.5470    1.9092   -5.5141 H   0  0  0  0  0  0  0  0  0  0  0  0
   -0.2829    1.8496   -6.9654 N   0  0  0  0  0  0  0  0  0  0  0  0
    0.5259    2.2959   -7.6009 N   0  0  0  0  0  0  0  0  0  0  0  0
    2.4444   -0.1038   -6.7301 S   0  0  0  0  0  0  0  0  0  0  0  0
    4.2289    0.3208   -6.4487 C   0  0  0  0  0  0  0  0  0  0  0  0
    2.1066    0.5948   -8.0110 O   0  0  0  0  0  0  0  0  0  0  0  0
    1.7525    0.5083   -5.5597 O   0  0  0  0  0  0  0  0  0  0  0  0
    2.3968   -1.5713   -6.7871 O   0  0  0  0  0  0  0  0  0  0  0  0
    4.9885   -0.1516   -7.4458 F   0  0  0  0  0  0  0  0  0  0  0  0
    4.3896    1.6527   -6.3863 F   0  0  0  0  0  0  0  0  0  0  0  0
    4.6584   -0.2110   -5.2958 F   0  0  0  0  0  0  0  0  0  0  0  0
   -4.4010   -0.4933   -4.2254 O   0  0  0  0  0  0  0  0  0  0  0  0
   -5.6974    0.1013   -4.1177 C   0  0  0  0  0  0  0  0  0  0  0  0
   -6.2897   -0.5956   -3.5255 H   0  0  0  0  0  0  0  0  0  0  0  0
   -6.1573    0.2255   -5.1042 H   0  0  0  0  0  0  0  0  0  0  0  0
   -5.6466    1.0673   -3.6040 H   0  0  0  0  0  0  0  0  0  0  0  0
  1  6  1  0  0  0  0
  1  7  1  0  0  0  0
  2  1  2  0  0  0  0
  3  4  2  0  0  0  0
  3  2  1  0  0  0  0
  4  5  1  0  0  0  0
  5 10  1  0  0  0  0
  5  6  2  0  0  0  0
  6 21  1  0  0  0  0
  8  2  1  0  0  0  0
  9  4  1  0  0  0  0
 11  3  1  0  0  0  0
 12 11  1  0  0  0  0
 13 14  1  0  0  0  0
 13 16  1  0  0  0  0
 14 19  1  0  0  0  0
 14 20  1  0  0  0  0
 15 13  2  0  0  0  0
 17 13  2  0  0  0  0
 18 14  1  0  0  0  0
 21 22  1  0  0  0  0
 22 25  1  0  0  0  0
 22 23  1  0  0  0  0
 24 22  1  0  0  0  0
M  RAD  3  11   2  12   3  16   2
M  END
