Coordinates from ORCA-job p-CH3O-Ph-N2-X-OTf-B3LYPG-6-31G_dp-scan-d09-49-n400
 OpenBabel08281820593D

 25 24  0  0  0  0  0  0  0  0999 V2000
   -2.1873   -0.4808   -4.8531 C   0  0  0  0  0  0  0  0  0  0  0  0
   -1.0987    0.0710   -5.4945 C   0  0  0  0  0  0  0  0  0  0  0  0
   -1.2899    1.2940   -6.1738 C   0  0  0  0  0  0  0  0  0  0  0  0
   -2.5306    1.9570   -6.2055 C   0  0  0  0  0  0  0  0  0  0  0  0
   -3.6106    1.3854   -5.5572 C   0  0  0  0  0  0  0  0  0  0  0  0
   -3.4454    0.1588   -4.8773 C   0  0  0  0  0  0  0  0  0  0  0  0
   -2.0954   -1.4166   -4.3142 H   0  0  0  0  0  0  0  0  0  0  0  0
   -0.1011   -0.3633   -5.4672 H   0  0  0  0  0  0  0  0  0  0  0  0
   -2.6350    2.8965   -6.7366 H   0  0  0  0  0  0  0  0  0  0  0  0
   -4.5688    1.8880   -5.5795 H   0  0  0  0  0  0  0  0  0  0  0  0
   -0.2488    1.8734   -6.8618 N   0  0  0  0  0  0  0  0  0  0  0  0
    0.5831    2.3097   -7.4741 N   0  0  0  0  0  0  0  0  0  0  0  0
    2.4639   -0.1834   -6.7566 S   0  0  0  0  0  0  0  0  0  0  0  0
    4.2315    0.3336   -6.5281 C   0  0  0  0  0  0  0  0  0  0  0  0
    2.0406    0.5390   -7.9983 O   0  0  0  0  0  0  0  0  0  0  0  0
    1.7907    0.3572   -5.5397 O   0  0  0  0  0  0  0  0  0  0  0  0
    2.4957   -1.6469   -6.8638 O   0  0  0  0  0  0  0  0  0  0  0  0
    4.9756   -0.0583   -7.5708 F   0  0  0  0  0  0  0  0  0  0  0  0
    4.3185    1.6704   -6.4235 F   0  0  0  0  0  0  0  0  0  0  0  0
    4.7386   -0.2109   -5.4135 F   0  0  0  0  0  0  0  0  0  0  0  0
   -4.4264   -0.4747   -4.2194 O   0  0  0  0  0  0  0  0  0  0  0  0
   -5.7381    0.0940   -4.1821 C   0  0  0  0  0  0  0  0  0  0  0  0
   -6.3406   -0.5998   -3.5968 H   0  0  0  0  0  0  0  0  0  0  0  0
   -6.1582    0.1829   -5.1899 H   0  0  0  0  0  0  0  0  0  0  0  0
   -5.7292    1.0739   -3.6927 H   0  0  0  0  0  0  0  0  0  0  0  0
  1  7  1  0  0  0  0
  2  8  1  0  0  0  0
  2  1  2  0  0  0  0
  3  2  1  0  0  0  0
  4  3  2  0  0  0  0
  4  5  1  0  0  0  0
  5  6  2  0  0  0  0
  6  1  1  0  0  0  0
  6 21  1  0  0  0  0
  9  4  1  0  0  0  0
 10  5  1  0  0  0  0
 11  3  1  0  0  0  0
 12 11  1  0  0  0  0
 13 14  1  0  0  0  0
 13 16  1  0  0  0  0
 14 19  1  0  0  0  0
 14 20  1  0  0  0  0
 15 13  2  0  0  0  0
 17 13  2  0  0  0  0
 18 14  1  0  0  0  0
 21 22  1  0  0  0  0
 22 25  1  0  0  0  0
 22 23  1  0  0  0  0
 24 22  1  0  0  0  0
M  RAD  3  11   2  12   3  16   2
M  END
