Coordinates from ORCA-job p-CH3O-Ph-N2-X-OTf-B3LYPG-6-31G_dp-scan-d09-49-n400
 OpenBabel08281820593D

 25 24  0  0  0  0  0  0  0  0999 V2000
   -2.0399   -0.3603   -4.9637 C   0  0  0  0  0  0  0  0  0  0  0  0
   -1.0357    0.3427   -5.5961 C   0  0  0  0  0  0  0  0  0  0  0  0
   -1.4015    1.5360   -6.2600 C   0  0  0  0  0  0  0  0  0  0  0  0
   -2.7198    2.0218   -6.2859 C   0  0  0  0  0  0  0  0  0  0  0  0
   -3.7111    1.2960   -5.6507 C   0  0  0  0  0  0  0  0  0  0  0  0
   -3.3755    0.0963   -4.9849 C   0  0  0  0  0  0  0  0  0  0  0  0
   -1.8157   -1.2786   -4.4331 H   0  0  0  0  0  0  0  0  0  0  0  0
    0.0058    0.0106   -5.5593 H   0  0  0  0  0  0  0  0  0  0  0  0
   -2.9510    2.9471   -6.8016 H   0  0  0  0  0  0  0  0  0  0  0  0
   -4.7307    1.6591   -5.6692 H   0  0  0  0  0  0  0  0  0  0  0  0
   -0.4287    2.2645   -6.9059 N   0  0  0  0  0  0  0  0  0  0  0  0
    0.5122    2.6411   -7.3945 N   0  0  0  0  0  0  0  0  0  0  0  0
    2.5952    0.6264   -6.1521 S   0  0  0  0  0  0  0  0  0  0  0  0
    4.1063   -0.3002   -6.7077 C   0  0  0  0  0  0  0  0  0  0  0  0
    1.8013    0.7580   -7.4262 O   0  0  0  0  0  0  0  0  0  0  0  0
    3.0872    1.9044   -5.6150 O   0  0  0  0  0  0  0  0  0  0  0  0
    1.9397   -0.2890   -5.1837 O   0  0  0  0  0  0  0  0  0  0  0  0
    3.7637   -1.4828   -7.2381 F   0  0  0  0  0  0  0  0  0  0  0  0
    4.7727    0.4045   -7.6318 F   0  0  0  0  0  0  0  0  0  0  0  0
    4.9208   -0.5194   -5.6669 F   0  0  0  0  0  0  0  0  0  0  0  0
   -4.2588   -0.6762   -4.3371 O   0  0  0  0  0  0  0  0  0  0  0  0
   -5.6363   -0.2956   -4.2943 C   0  0  0  0  0  0  0  0  0  0  0  0
   -6.1364   -1.0724   -3.7168 H   0  0  0  0  0  0  0  0  0  0  0  0
   -6.0661   -0.2548   -5.3010 H   0  0  0  0  0  0  0  0  0  0  0  0
   -5.7632    0.6709   -3.7944 H   0  0  0  0  0  0  0  0  0  0  0  0
  1  7  1  0  0  0  0
  2  8  1  0  0  0  0
  2  1  2  0  0  0  0
  3  2  1  0  0  0  0
  4  3  2  0  0  0  0
  4  5  1  0  0  0  0
  5  6  2  0  0  0  0
  6  1  1  0  0  0  0
  6 21  1  0  0  0  0
  9  4  1  0  0  0  0
 10  5  1  0  0  0  0
 11  3  1  0  0  0  0
 12 11  1  0  0  0  0
 13 16  2  0  0  0  0
 13 17  1  0  0  0  0
 14 13  1  0  0  0  0
 14 20  1  0  0  0  0
 15 13  2  0  0  0  0
 18 14  1  0  0  0  0
 19 14  1  0  0  0  0
 21 22  1  0  0  0  0
 22 25  1  0  0  0  0
 22 23  1  0  0  0  0
 24 22  1  0  0  0  0
M  RAD  3  11   2  12   3  17   2
M  END
