Coordinates from ORCA-job p-CH3O-Ph-N2-X-OTf-B3LYPG-6-31G_dp-scan-d09-49-n400
 OpenBabel08281820593D

 25 24  0  0  0  0  0  0  0  0999 V2000
   -1.9092   -0.1944   -4.8446 C   0  0  0  0  0  0  0  0  0  0  0  0
   -0.9420    0.5799   -5.4523 C   0  0  0  0  0  0  0  0  0  0  0  0
   -1.3943    1.6928   -6.1979 C   0  0  0  0  0  0  0  0  0  0  0  0
   -2.7520    2.0363   -6.3319 C   0  0  0  0  0  0  0  0  0  0  0  0
   -3.6986    1.2388   -5.7176 C   0  0  0  0  0  0  0  0  0  0  0  0
   -3.2808    0.1144   -4.9686 C   0  0  0  0  0  0  0  0  0  0  0  0
   -1.6262   -1.0598   -4.2554 H   0  0  0  0  0  0  0  0  0  0  0  0
    0.1403    0.3615   -5.3447 H   0  0  0  0  0  0  0  0  0  0  0  0
   -3.0453    2.9046   -6.9119 H   0  0  0  0  0  0  0  0  0  0  0  0
   -4.7476    1.4870   -5.8171 H   0  0  0  0  0  0  0  0  0  0  0  0
   -0.4597    2.4842   -6.8200 N   0  0  0  0  0  0  0  0  0  0  0  0
    0.4268    2.9808   -7.2943 N   0  0  0  0  0  0  0  0  0  0  0  0
    2.6744    0.7780   -6.1362 S   0  0  0  0  0  0  0  0  0  0  0  0
    3.8078   -0.5608   -6.7471 C   0  0  0  0  0  0  0  0  0  0  0  0
    1.8752    1.1141   -7.3602 O   0  0  0  0  0  0  0  0  0  0  0  0
    3.5559    1.8435   -5.6445 O   0  0  0  0  0  0  0  0  0  0  0  0
    1.8442    0.0893   -5.1046 O   0  0  0  0  0  0  0  0  0  0  0  0
    3.0998   -1.5955   -7.2273 F   0  0  0  0  0  0  0  0  0  0  0  0
    4.5962   -0.0967   -7.7257 F   0  0  0  0  0  0  0  0  0  0  0  0
    4.5829   -1.0054   -5.7484 F   0  0  0  0  0  0  0  0  0  0  0  0
   -4.1193   -0.7159   -4.3341 O   0  0  0  0  0  0  0  0  0  0  0  0
   -5.5292   -0.4859   -4.3949 C   0  0  0  0  0  0  0  0  0  0  0  0
   -5.9813   -1.2858   -3.8097 H   0  0  0  0  0  0  0  0  0  0  0  0
   -5.8931   -0.5371   -5.4266 H   0  0  0  0  0  0  0  0  0  0  0  0
   -5.7906    0.4824   -3.9544 H   0  0  0  0  0  0  0  0  0  0  0  0
  1  7  1  0  0  0  0
  2  8  1  0  0  0  0
  2  1  2  0  0  0  0
  3  2  1  0  0  0  0
  4  3  2  0  0  0  0
  4  5  1  0  0  0  0
  5  6  2  0  0  0  0
  6  1  1  0  0  0  0
  6 21  1  0  0  0  0
  9  4  1  0  0  0  0
 10  5  1  0  0  0  0
 11  3  1  0  0  0  0
 12 11  1  0  0  0  0
 13 16  2  0  0  0  0
 13 17  1  0  0  0  0
 14 13  1  0  0  0  0
 14 20  1  0  0  0  0
 15 13  2  0  0  0  0
 18 14  1  0  0  0  0
 19 14  1  0  0  0  0
 22 21  1  0  0  0  0
 22 25  1  0  0  0  0
 22 23  1  0  0  0  0
 24 22  1  0  0  0  0
M  RAD  3  11   2  12   3  17   2
M  END
