Coordinates from ORCA-job p-CH3O-Ph-N2-X-OTf-B3LYPG-6-31G_dp-scan-d09-49-n400
 OpenBabel08281820593D

 25 24  0  0  0  0  0  0  0  0999 V2000
   -2.1851   -0.6573   -5.2661 C   0  0  0  0  0  0  0  0  0  0  0  0
   -1.1780   -0.1365   -6.0497 C   0  0  0  0  0  0  0  0  0  0  0  0
   -1.3649    1.1604   -6.5801 C   0  0  0  0  0  0  0  0  0  0  0  0
   -2.5216    1.9190   -6.3267 C   0  0  0  0  0  0  0  0  0  0  0  0
   -3.5146    1.3839   -5.5258 C   0  0  0  0  0  0  0  0  0  0  0  0
   -3.3514    0.0886   -4.9895 C   0  0  0  0  0  0  0  0  0  0  0  0
   -2.0916   -1.6472   -4.8355 H   0  0  0  0  0  0  0  0  0  0  0  0
   -0.2661   -0.6895   -6.2413 H   0  0  0  0  0  0  0  0  0  0  0  0
   -2.6254    2.9113   -6.7508 H   0  0  0  0  0  0  0  0  0  0  0  0
   -4.4034    1.9667   -5.3227 H   0  0  0  0  0  0  0  0  0  0  0  0
   -0.4110    1.7227   -7.3914 N   0  0  0  0  0  0  0  0  0  0  0  0
    0.3579    2.1543   -8.0838 N   0  0  0  0  0  0  0  0  0  0  0  0
    2.3388    0.1325   -6.6553 S   0  0  0  0  0  0  0  0  0  0  0  0
    4.0974    0.3222   -6.0910 C   0  0  0  0  0  0  0  0  0  0  0  0
    2.3158    0.7826   -8.0019 O   0  0  0  0  0  0  0  0  0  0  0  0
    1.5456    0.8839   -5.6456 O   0  0  0  0  0  0  0  0  0  0  0  0
    2.0976   -1.3245   -6.6657 O   0  0  0  0  0  0  0  0  0  0  0  0
    4.9313   -0.3053   -6.9304 F   0  0  0  0  0  0  0  0  0  0  0  0
    4.4371    1.6190   -6.0410 F   0  0  0  0  0  0  0  0  0  0  0  0
    4.2491   -0.2021   -4.8659 F   0  0  0  0  0  0  0  0  0  0  0  0
   -4.2514   -0.5209   -4.2057 O   0  0  0  0  0  0  0  0  0  0  0  0
   -5.4595    0.1576   -3.8525 C   0  0  0  0  0  0  0  0  0  0  0  0
   -6.0057   -0.5340   -3.2116 H   0  0  0  0  0  0  0  0  0  0  0  0
   -6.0592    0.3840   -4.7409 H   0  0  0  0  0  0  0  0  0  0  0  0
   -5.2471    1.0789   -3.2993 H   0  0  0  0  0  0  0  0  0  0  0  0
  1  6  1  0  0  0  0
  1  7  1  0  0  0  0
  2  1  2  0  0  0  0
  3  4  2  0  0  0  0
  3  2  1  0  0  0  0
  4  5  1  0  0  0  0
  5 10  1  0  0  0  0
  5  6  2  0  0  0  0
  6 21  1  0  0  0  0
  8  2  1  0  0  0  0
  9  4  1  0  0  0  0
 11  3  1  0  0  0  0
 12 11  1  0  0  0  0
 13 14  1  0  0  0  0
 13 16  1  0  0  0  0
 14 19  1  0  0  0  0
 14 20  1  0  0  0  0
 15 13  2  0  0  0  0
 17 13  2  0  0  0  0
 18 14  1  0  0  0  0
 21 22  1  0  0  0  0
 22 25  1  0  0  0  0
 22 23  1  0  0  0  0
 24 22  1  0  0  0  0
M  RAD  3  11   2  12   3  16   2
M  END
