Coordinates from ORCA-job p-CH3O-Ph-N2-X-OTf-B3LYPG-6-31G_dp-scan-d09-49-n400
 OpenBabel08281820593D

 25 24  0  0  0  0  0  0  0  0999 V2000
   -2.2162   -0.6028   -5.0789 C   0  0  0  0  0  0  0  0  0  0  0  0
   -1.1534   -0.0737   -5.7793 C   0  0  0  0  0  0  0  0  0  0  0  0
   -1.3188    1.2044   -6.3577 C   0  0  0  0  0  0  0  0  0  0  0  0
   -2.5116    1.9396   -6.2302 C   0  0  0  0  0  0  0  0  0  0  0  0
   -3.5640    1.3954   -5.5160 C   0  0  0  0  0  0  0  0  0  0  0  0
   -3.4230    0.1158   -4.9371 C   0  0  0  0  0  0  0  0  0  0  0  0
   -2.1400   -1.5787   -4.6144 H   0  0  0  0  0  0  0  0  0  0  0  0
   -0.2006   -0.5829   -5.8596 H   0  0  0  0  0  0  0  0  0  0  0  0
   -2.5994    2.9183   -6.6884 H   0  0  0  0  0  0  0  0  0  0  0  0
   -4.4819    1.9590   -5.4117 H   0  0  0  0  0  0  0  0  0  0  0  0
   -0.3158    1.7684   -7.1105 N   0  0  0  0  0  0  0  0  0  0  0  0
    0.4628    2.2171   -7.7812 N   0  0  0  0  0  0  0  0  0  0  0  0
    2.4336   -0.0501   -6.7169 S   0  0  0  0  0  0  0  0  0  0  0  0
    4.1981    0.3695   -6.3236 C   0  0  0  0  0  0  0  0  0  0  0  0
    2.1878    0.6177   -8.0339 O   0  0  0  0  0  0  0  0  0  0  0  0
    1.6640    0.5887   -5.6117 O   0  0  0  0  0  0  0  0  0  0  0  0
    2.3813   -1.5197   -6.7424 O   0  0  0  0  0  0  0  0  0  0  0  0
    5.0194   -0.1277   -7.2578 F   0  0  0  0  0  0  0  0  0  0  0  0
    4.3645    1.7011   -6.2757 F   0  0  0  0  0  0  0  0  0  0  0  0
    4.5441   -0.1424   -5.1340 F   0  0  0  0  0  0  0  0  0  0  0  0
   -4.3803   -0.5008   -4.2305 O   0  0  0  0  0  0  0  0  0  0  0  0
   -5.6362    0.1497   -4.0189 C   0  0  0  0  0  0  0  0  0  0  0  0
   -6.2274   -0.5444   -3.4221 H   0  0  0  0  0  0  0  0  0  0  0  0
   -6.1463    0.3411   -4.9692 H   0  0  0  0  0  0  0  0  0  0  0  0
   -5.5064    1.0876   -3.4683 H   0  0  0  0  0  0  0  0  0  0  0  0
  1  6  1  0  0  0  0
  1  7  1  0  0  0  0
  2  1  2  0  0  0  0
  3  4  2  0  0  0  0
  3  2  1  0  0  0  0
  4  5  1  0  0  0  0
  5 10  1  0  0  0  0
  5  6  2  0  0  0  0
  6 21  1  0  0  0  0
  8  2  1  0  0  0  0
  9  4  1  0  0  0  0
 11  3  1  0  0  0  0
 12 11  1  0  0  0  0
 13 14  1  0  0  0  0
 13 16  1  0  0  0  0
 14 19  1  0  0  0  0
 14 20  1  0  0  0  0
 15 13  2  0  0  0  0
 17 13  2  0  0  0  0
 18 14  1  0  0  0  0
 21 22  1  0  0  0  0
 22 25  1  0  0  0  0
 22 23  1  0  0  0  0
 24 22  1  0  0  0  0
M  RAD  3  11   2  12   3  16   2
M  END
