Coordinates from ORCA-job p-CH3O-Ph-N2-X-OTf-B3LYPG-6-31G_dp-scan-d09-49-n400
 OpenBabel08281820593D

 25 24  0  0  0  0  0  0  0  0999 V2000
   -2.1257   -0.6312   -5.2661 C   0  0  0  0  0  0  0  0  0  0  0  0
   -1.1432   -0.1011   -6.0745 C   0  0  0  0  0  0  0  0  0  0  0  0
   -1.3779    1.1777   -6.6308 C   0  0  0  0  0  0  0  0  0  0  0  0
   -2.5536    1.9085   -6.3816 C   0  0  0  0  0  0  0  0  0  0  0  0
   -3.5198    1.3630   -5.5563 C   0  0  0  0  0  0  0  0  0  0  0  0
   -3.3099    0.0863   -4.9913 C   0  0  0  0  0  0  0  0  0  0  0  0
   -1.9977   -1.6077   -4.8141 H   0  0  0  0  0  0  0  0  0  0  0  0
   -0.2173   -0.6358   -6.2719 H   0  0  0  0  0  0  0  0  0  0  0  0
   -2.6918    2.8876   -6.8264 H   0  0  0  0  0  0  0  0  0  0  0  0
   -4.4234    1.9233   -5.3555 H   0  0  0  0  0  0  0  0  0  0  0  0
   -0.4465    1.7504   -7.4597 N   0  0  0  0  0  0  0  0  0  0  0  0
    0.3180    2.1850   -8.1543 N   0  0  0  0  0  0  0  0  0  0  0  0
    2.2959    0.2516   -6.6374 S   0  0  0  0  0  0  0  0  0  0  0  0
    4.0533    0.2279   -6.0397 C   0  0  0  0  0  0  0  0  0  0  0  0
    2.3724    0.8944   -7.9831 O   0  0  0  0  0  0  0  0  0  0  0  0
    1.5692    1.0797   -5.6398 O   0  0  0  0  0  0  0  0  0  0  0  0
    1.8848   -1.1719   -6.6564 O   0  0  0  0  0  0  0  0  0  0  0  0
    4.8222   -0.4912   -6.8679 F   0  0  0  0  0  0  0  0  0  0  0  0
    4.5429    1.4745   -5.9755 F   0  0  0  0  0  0  0  0  0  0  0  0
    4.1172   -0.3162   -4.8159 F   0  0  0  0  0  0  0  0  0  0  0  0
   -4.1812   -0.5299   -4.1810 O   0  0  0  0  0  0  0  0  0  0  0  0
   -5.4031    0.1222   -3.8251 C   0  0  0  0  0  0  0  0  0  0  0  0
   -5.9184   -0.5682   -3.1579 H   0  0  0  0  0  0  0  0  0  0  0  0
   -6.0230    0.3080   -4.7089 H   0  0  0  0  0  0  0  0  0  0  0  0
   -5.2091    1.0632   -3.2989 H   0  0  0  0  0  0  0  0  0  0  0  0
  1  6  1  0  0  0  0
  1  7  1  0  0  0  0
  2  1  2  0  0  0  0
  3  4  2  0  0  0  0
  3  2  1  0  0  0  0
  4  5  1  0  0  0  0
  5 10  1  0  0  0  0
  5  6  2  0  0  0  0
  6 21  1  0  0  0  0
  8  2  1  0  0  0  0
  9  4  1  0  0  0  0
 11  3  1  0  0  0  0
 12 11  1  0  0  0  0
 13 14  1  0  0  0  0
 13 16  1  0  0  0  0
 14 19  1  0  0  0  0
 14 20  1  0  0  0  0
 15 13  2  0  0  0  0
 17 13  2  0  0  0  0
 18 14  1  0  0  0  0
 21 22  1  0  0  0  0
 22 25  1  0  0  0  0
 22 23  1  0  0  0  0
 24 22  1  0  0  0  0
M  RAD  3  11   2  12   3  16   2
M  END
