Coordinates from ORCA-job p-CH3O-Ph-N2-X-OTf-B3LYPG-6-31G_dp-scan-d09-49-n400
 OpenBabel08281820593D

 25 24  0  0  0  0  0  0  0  0999 V2000
   -2.1907   -0.5210   -4.9335 C   0  0  0  0  0  0  0  0  0  0  0  0
   -1.1132    0.0273   -5.5959 C   0  0  0  0  0  0  0  0  0  0  0  0
   -1.3025    1.2699   -6.2398 C   0  0  0  0  0  0  0  0  0  0  0  0
   -2.5321    1.9537   -6.2157 C   0  0  0  0  0  0  0  0  0  0  0  0
   -3.6007    1.3875   -5.5441 C   0  0  0  0  0  0  0  0  0  0  0  0
   -3.4364    0.1421   -4.8994 C   0  0  0  0  0  0  0  0  0  0  0  0
   -2.0984   -1.4710   -4.4203 H   0  0  0  0  0  0  0  0  0  0  0  0
   -0.1269   -0.4280   -5.6031 H   0  0  0  0  0  0  0  0  0  0  0  0
   -2.6364    2.9069   -6.7215 H   0  0  0  0  0  0  0  0  0  0  0  0
   -4.5490    1.9084   -5.5215 H   0  0  0  0  0  0  0  0  0  0  0  0
   -0.2777    1.8481   -6.9522 N   0  0  0  0  0  0  0  0  0  0  0  0
    0.5327    2.2945   -7.5856 N   0  0  0  0  0  0  0  0  0  0  0  0
    2.4500   -0.1181   -6.7375 S   0  0  0  0  0  0  0  0  0  0  0  0
    4.2297    0.3271   -6.4574 C   0  0  0  0  0  0  0  0  0  0  0  0
    2.1007    0.5869   -8.0117 O   0  0  0  0  0  0  0  0  0  0  0  0
    1.7546    0.4771   -5.5604 O   0  0  0  0  0  0  0  0  0  0  0  0
    2.4204   -1.5851   -6.8058 O   0  0  0  0  0  0  0  0  0  0  0  0
    4.9926   -0.1278   -7.4601 F   0  0  0  0  0  0  0  0  0  0  0  0
    4.3735    1.6607   -6.3854 F   0  0  0  0  0  0  0  0  0  0  0  0
    4.6694   -0.2077   -5.3098 F   0  0  0  0  0  0  0  0  0  0  0  0
   -4.4064   -0.4893   -4.2237 O   0  0  0  0  0  0  0  0  0  0  0  0
   -5.7040    0.1039   -4.1247 C   0  0  0  0  0  0  0  0  0  0  0  0
   -6.2986   -0.5917   -3.5332 H   0  0  0  0  0  0  0  0  0  0  0  0
   -6.1590    0.2243   -5.1139 H   0  0  0  0  0  0  0  0  0  0  0  0
   -5.6572    1.0717   -3.6139 H   0  0  0  0  0  0  0  0  0  0  0  0
  1  6  1  0  0  0  0
  1  7  1  0  0  0  0
  2  1  2  0  0  0  0
  3  4  2  0  0  0  0
  3  2  1  0  0  0  0
  4  5  1  0  0  0  0
  5 10  1  0  0  0  0
  5  6  2  0  0  0  0
  6 21  1  0  0  0  0
  8  2  1  0  0  0  0
  9  4  1  0  0  0  0
 11  3  1  0  0  0  0
 12 11  1  0  0  0  0
 13 14  1  0  0  0  0
 13 16  1  0  0  0  0
 14 19  1  0  0  0  0
 14 20  1  0  0  0  0
 15 13  2  0  0  0  0
 17 13  2  0  0  0  0
 18 14  1  0  0  0  0
 21 22  1  0  0  0  0
 22 25  1  0  0  0  0
 22 23  1  0  0  0  0
 24 22  1  0  0  0  0
M  RAD  3  11   2  12   3  16   2
M  END
