Coordinates from ORCA-job p-CH3O-Ph-N2-X-OTf-B3LYPG-6-31G_dp-scan-d09-49-n400
 OpenBabel08281820593D

 25 24  0  0  0  0  0  0  0  0999 V2000
   -2.3115   -0.6328   -4.9257 C   0  0  0  0  0  0  0  0  0  0  0  0
   -1.1847   -0.2033   -5.5950 C   0  0  0  0  0  0  0  0  0  0  0  0
   -1.2367    1.0579   -6.2259 C   0  0  0  0  0  0  0  0  0  0  0  0
   -2.3808    1.8765   -6.1863 C   0  0  0  0  0  0  0  0  0  0  0  0
   -3.5023    1.4266   -5.5127 C   0  0  0  0  0  0  0  0  0  0  0  0
   -3.4748    0.1654   -4.8781 C   0  0  0  0  0  0  0  0  0  0  0  0
   -2.3234   -1.5912   -4.4198 H   0  0  0  0  0  0  0  0  0  0  0  0
   -0.2560   -0.7669   -5.6333 H   0  0  0  0  0  0  0  0  0  0  0  0
   -2.3801    2.8408   -6.6819 H   0  0  0  0  0  0  0  0  0  0  0  0
   -4.3868    2.0494   -5.4809 H   0  0  0  0  0  0  0  0  0  0  0  0
   -0.1502    1.5272   -6.9270 N   0  0  0  0  0  0  0  0  0  0  0  0
    0.7092    1.9110   -7.5397 N   0  0  0  0  0  0  0  0  0  0  0  0
    2.6691   -0.4937   -6.9160 S   0  0  0  0  0  0  0  0  0  0  0  0
    3.9616    0.7326   -6.3943 C   0  0  0  0  0  0  0  0  0  0  0  0
    2.0886    0.1396   -8.1439 O   0  0  0  0  0  0  0  0  0  0  0  0
    1.7178   -0.4586   -5.7681 O   0  0  0  0  0  0  0  0  0  0  0  0
    3.3944   -1.7468   -7.1376 O   0  0  0  0  0  0  0  0  0  0  0  0
    4.8968    0.8772   -7.3407 F   0  0  0  0  0  0  0  0  0  0  0  0
    3.3921    1.9391   -6.1797 F   0  0  0  0  0  0  0  0  0  0  0  0
    4.5581    0.3472   -5.2590 F   0  0  0  0  0  0  0  0  0  0  0  0
   -4.5064   -0.3590   -4.2012 O   0  0  0  0  0  0  0  0  0  0  0  0
   -5.7273    0.3771   -4.0869 C   0  0  0  0  0  0  0  0  0  0  0  0
   -6.3965   -0.2561   -3.5052 H   0  0  0  0  0  0  0  0  0  0  0  0
   -6.1673    0.5671   -5.0718 H   0  0  0  0  0  0  0  0  0  0  0  0
   -5.5687    1.3239   -3.5596 H   0  0  0  0  0  0  0  0  0  0  0  0
  1  6  1  0  0  0  0
  1  7  1  0  0  0  0
  2  1  2  0  0  0  0
  3  4  2  0  0  0  0
  3  2  1  0  0  0  0
  4  5  1  0  0  0  0
  5 10  1  0  0  0  0
  5  6  2  0  0  0  0
  6 21  1  0  0  0  0
  8  2  1  0  0  0  0
  9  4  1  0  0  0  0
 11  3  1  0  0  0  0
 12 11  1  0  0  0  0
 13 14  1  0  0  0  0
 13 16  1  0  0  0  0
 14 19  1  0  0  0  0
 14 20  1  0  0  0  0
 15 13  2  0  0  0  0
 17 13  2  0  0  0  0
 18 14  1  0  0  0  0
 21 22  1  0  0  0  0
 22 25  1  0  0  0  0
 22 23  1  0  0  0  0
 24 22  1  0  0  0  0
M  RAD  3  11   2  12   3  16   2
M  END
