Coordinates from ORCA-job p-CH3O-Ph-N2-X-OTf-B3LYPG-6-31G_dp-scan-d09-49-n400
 OpenBabel08281820593D

 25 24  0  0  0  0  0  0  0  0999 V2000
   -1.7298   -0.0498   -4.7951 C   0  0  0  0  0  0  0  0  0  0  0  0
   -0.7972    0.8006   -5.3609 C   0  0  0  0  0  0  0  0  0  0  0  0
   -1.3298    1.8596   -6.1334 C   0  0  0  0  0  0  0  0  0  0  0  0
   -2.7077    2.0823   -6.3429 C   0  0  0  0  0  0  0  0  0  0  0  0
   -3.6032    1.2083   -5.7633 C   0  0  0  0  0  0  0  0  0  0  0  0
   -3.1156    0.1316   -4.9816 C   0  0  0  0  0  0  0  0  0  0  0  0
   -1.4034   -0.8896   -4.1899 H   0  0  0  0  0  0  0  0  0  0  0  0
    0.3598    0.6485   -5.2170 H   0  0  0  0  0  0  0  0  0  0  0  0
   -3.0506    2.9152   -6.9480 H   0  0  0  0  0  0  0  0  0  0  0  0
   -4.6649    1.3560   -5.9149 H   0  0  0  0  0  0  0  0  0  0  0  0
   -0.4558    2.7400   -6.7164 N   0  0  0  0  0  0  0  0  0  0  0  0
    0.2963    3.4242   -7.1790 N   0  0  0  0  0  0  0  0  0  0  0  0
    2.6673    0.8395   -6.1274 S   0  0  0  0  0  0  0  0  0  0  0  0
    3.3228   -0.7862   -6.7391 C   0  0  0  0  0  0  0  0  0  0  0  0
    1.9066    1.3754   -7.2863 O   0  0  0  0  0  0  0  0  0  0  0  0
    3.8435    1.5965   -5.6939 O   0  0  0  0  0  0  0  0  0  0  0  0
    1.7375    0.4168   -5.0166 O   0  0  0  0  0  0  0  0  0  0  0  0
    2.3127   -1.5754   -7.1440 F   0  0  0  0  0  0  0  0  0  0  0  0
    4.1510   -0.5953   -7.7743 F   0  0  0  0  0  0  0  0  0  0  0  0
    3.9906   -1.4209   -5.7671 F   0  0  0  0  0  0  0  0  0  0  0  0
   -3.9064   -0.7664   -4.3783 O   0  0  0  0  0  0  0  0  0  0  0  0
   -5.3265   -0.6691   -4.5103 C   0  0  0  0  0  0  0  0  0  0  0  0
   -5.7311   -1.5043   -3.9396 H   0  0  0  0  0  0  0  0  0  0  0  0
   -5.6331   -0.7603   -5.5577 H   0  0  0  0  0  0  0  0  0  0  0  0
   -5.6987    0.2729   -4.0931 H   0  0  0  0  0  0  0  0  0  0  0  0
  1  7  1  0  0  0  0
  2  8  1  0  0  0  0
  2  1  2  0  0  0  0
  3  2  1  0  0  0  0
  4  3  2  0  0  0  0
  4  5  1  0  0  0  0
  5  6  2  0  0  0  0
  6  1  1  0  0  0  0
  6 21  1  0  0  0  0
  9  4  1  0  0  0  0
 10  5  1  0  0  0  0
 11  3  1  0  0  0  0
 12 11  1  0  0  0  0
 13 16  2  0  0  0  0
 13 17  1  0  0  0  0
 14 13  1  0  0  0  0
 14 20  1  0  0  0  0
 15 13  2  0  0  0  0
 18 14  1  0  0  0  0
 19 14  1  0  0  0  0
 22 21  1  0  0  0  0
 22 25  1  0  0  0  0
 22 23  1  0  0  0  0
 24 22  1  0  0  0  0
M  RAD  3  11   2  12   3  17   2
M  END
