Coordinates from ORCA-job p-CH3O-Ph-N2-X-OTf-B3LYPG-6-31G_dp-scan-d09-49-n400
 OpenBabel08281820593D

 25 24  0  0  0  0  0  0  0  0999 V2000
   -2.1878   -0.5249   -4.9476 C   0  0  0  0  0  0  0  0  0  0  0  0
   -1.1130    0.0255   -5.6125 C   0  0  0  0  0  0  0  0  0  0  0  0
   -1.3044    1.2709   -6.2506 C   0  0  0  0  0  0  0  0  0  0  0  0
   -2.5335    1.9551   -6.2176 C   0  0  0  0  0  0  0  0  0  0  0  0
   -3.5992    1.3872   -5.5428 C   0  0  0  0  0  0  0  0  0  0  0  0
   -3.4327    0.1391   -4.9042 C   0  0  0  0  0  0  0  0  0  0  0  0
   -2.0935   -1.4770   -4.4388 H   0  0  0  0  0  0  0  0  0  0  0  0
   -0.1284   -0.4321   -5.6246 H   0  0  0  0  0  0  0  0  0  0  0  0
   -2.6396    2.9104   -6.7192 H   0  0  0  0  0  0  0  0  0  0  0  0
   -4.5469    1.9089   -5.5132 H   0  0  0  0  0  0  0  0  0  0  0  0
   -0.2835    1.8514   -6.9667 N   0  0  0  0  0  0  0  0  0  0  0  0
    0.5254    2.2973   -7.6023 N   0  0  0  0  0  0  0  0  0  0  0  0
    2.4425   -0.1009   -6.7275 S   0  0  0  0  0  0  0  0  0  0  0  0
    4.2287    0.3186   -6.4485 C   0  0  0  0  0  0  0  0  0  0  0  0
    2.1060    0.5953   -8.0100 O   0  0  0  0  0  0  0  0  0  0  0  0
    1.7532    0.5162   -5.5583 O   0  0  0  0  0  0  0  0  0  0  0  0
    2.3902   -1.5685   -6.7807 O   0  0  0  0  0  0  0  0  0  0  0  0
    4.9860   -0.1587   -7.4449 F   0  0  0  0  0  0  0  0  0  0  0  0
    4.3936    1.6502   -6.3895 F   0  0  0  0  0  0  0  0  0  0  0  0
    4.6572   -0.2116   -5.2945 F   0  0  0  0  0  0  0  0  0  0  0  0
   -4.3998   -0.4944   -4.2262 O   0  0  0  0  0  0  0  0  0  0  0  0
   -5.6962    0.0998   -4.1175 C   0  0  0  0  0  0  0  0  0  0  0  0
   -6.2881   -0.5976   -3.5254 H   0  0  0  0  0  0  0  0  0  0  0  0
   -6.1566    0.2245   -5.1036 H   0  0  0  0  0  0  0  0  0  0  0  0
   -5.6453    1.0655   -3.6032 H   0  0  0  0  0  0  0  0  0  0  0  0
  1  6  1  0  0  0  0
  1  7  1  0  0  0  0
  2  1  2  0  0  0  0
  3  4  2  0  0  0  0
  3  2  1  0  0  0  0
  4  5  1  0  0  0  0
  5 10  1  0  0  0  0
  5  6  2  0  0  0  0
  6 21  1  0  0  0  0
  8  2  1  0  0  0  0
  9  4  1  0  0  0  0
 11  3  1  0  0  0  0
 12 11  1  0  0  0  0
 13 14  1  0  0  0  0
 13 16  1  0  0  0  0
 14 19  1  0  0  0  0
 14 20  1  0  0  0  0
 15 13  2  0  0  0  0
 17 13  2  0  0  0  0
 18 14  1  0  0  0  0
 21 22  1  0  0  0  0
 22 25  1  0  0  0  0
 22 23  1  0  0  0  0
 24 22  1  0  0  0  0
M  RAD  3  11   2  12   3  16   2
M  END
