Coordinates from ORCA-job p-CH3O-Ph-N2-X-OTf-B3LYPG-6-31G_dp-scan-d09-49-n400
 OpenBabel08281820593D

 25 24  0  0  0  0  0  0  0  0999 V2000
   -2.2219   -0.6602   -5.2244 C   0  0  0  0  0  0  0  0  0  0  0  0
   -1.1878   -0.1443   -5.9755 C   0  0  0  0  0  0  0  0  0  0  0  0
   -1.3442    1.1578   -6.5014 C   0  0  0  0  0  0  0  0  0  0  0  0
   -2.4990    1.9273   -6.2733 C   0  0  0  0  0  0  0  0  0  0  0  0
   -3.5206    1.3975   -5.5051 C   0  0  0  0  0  0  0  0  0  0  0  0
   -3.3881    0.0958   -4.9764 C   0  0  0  0  0  0  0  0  0  0  0  0
   -2.1515   -1.6539   -4.7981 H   0  0  0  0  0  0  0  0  0  0  0  0
   -0.2713   -0.6963   -6.1384 H   0  0  0  0  0  0  0  0  0  0  0  0
   -2.5805    2.9234   -6.6934 H   0  0  0  0  0  0  0  0  0  0  0  0
   -4.4079    1.9891   -5.3220 H   0  0  0  0  0  0  0  0  0  0  0  0
   -0.3681    1.7126   -7.2930 N   0  0  0  0  0  0  0  0  0  0  0  0
    0.4006    2.1484   -7.9833 N   0  0  0  0  0  0  0  0  0  0  0  0
    2.3868    0.0281   -6.6826 S   0  0  0  0  0  0  0  0  0  0  0  0
    4.1342    0.3857   -6.1686 C   0  0  0  0  0  0  0  0  0  0  0  0
    2.2644    0.6763   -8.0259 O   0  0  0  0  0  0  0  0  0  0  0  0
    1.5608    0.7119   -5.6486 O   0  0  0  0  0  0  0  0  0  0  0  0
    2.2804   -1.4414   -6.6881 O   0  0  0  0  0  0  0  0  0  0  0  0
    5.0001   -0.1593   -7.0332 F   0  0  0  0  0  0  0  0  0  0  0  0
    4.3492    1.7099   -6.1272 F   0  0  0  0  0  0  0  0  0  0  0  0
    4.3721   -0.1194   -4.9495 F   0  0  0  0  0  0  0  0  0  0  0  0
   -4.3176   -0.5107   -4.2252 O   0  0  0  0  0  0  0  0  0  0  0  0
   -5.5294    0.1772   -3.9042 C   0  0  0  0  0  0  0  0  0  0  0  0
   -6.1044   -0.5158   -3.2904 H   0  0  0  0  0  0  0  0  0  0  0  0
   -6.0966    0.4211   -4.8091 H   0  0  0  0  0  0  0  0  0  0  0  0
   -5.3255    1.0894   -3.3332 H   0  0  0  0  0  0  0  0  0  0  0  0
  1  6  1  0  0  0  0
  1  7  1  0  0  0  0
  2  1  2  0  0  0  0
  3  4  2  0  0  0  0
  3  2  1  0  0  0  0
  4  5  1  0  0  0  0
  5 10  1  0  0  0  0
  5  6  2  0  0  0  0
  6 21  1  0  0  0  0
  8  2  1  0  0  0  0
  9  4  1  0  0  0  0
 11  3  1  0  0  0  0
 12 11  1  0  0  0  0
 13 14  1  0  0  0  0
 13 16  1  0  0  0  0
 14 19  1  0  0  0  0
 14 20  1  0  0  0  0
 15 13  2  0  0  0  0
 17 13  2  0  0  0  0
 18 14  1  0  0  0  0
 21 22  1  0  0  0  0
 22 25  1  0  0  0  0
 22 23  1  0  0  0  0
 24 22  1  0  0  0  0
M  RAD  3  11   2  12   3  16   2
M  END
