Coordinates from ORCA-job p-CH3O-Ph-N2-X-OTf-B3LYPG-6-31G_dp-scan-d09-49-n400
 OpenBabel08281820593D

 25 24  0  0  0  0  0  0  0  0999 V2000
   -2.1595   -0.6465   -5.2682 C   0  0  0  0  0  0  0  0  0  0  0  0
   -1.1641   -0.1218   -6.0642 C   0  0  0  0  0  0  0  0  0  0  0  0
   -1.3720    1.1676   -6.6056 C   0  0  0  0  0  0  0  0  0  0  0  0
   -2.5366    1.9144   -6.3525 C   0  0  0  0  0  0  0  0  0  0  0  0
   -3.5169    1.3750   -5.5394 C   0  0  0  0  0  0  0  0  0  0  0  0
   -3.3328    0.0876   -4.9905 C   0  0  0  0  0  0  0  0  0  0  0  0
   -2.0505   -1.6308   -4.8284 H   0  0  0  0  0  0  0  0  0  0  0  0
   -0.2476   -0.6678   -6.2602 H   0  0  0  0  0  0  0  0  0  0  0  0
   -2.6558    2.9010   -6.7857 H   0  0  0  0  0  0  0  0  0  0  0  0
   -4.4118    1.9483   -5.3363 H   0  0  0  0  0  0  0  0  0  0  0  0
   -0.4287    1.7343   -7.4258 N   0  0  0  0  0  0  0  0  0  0  0  0
    0.3381    2.1665   -8.1198 N   0  0  0  0  0  0  0  0  0  0  0  0
    2.3191    0.1858   -6.6483 S   0  0  0  0  0  0  0  0  0  0  0  0
    4.0790    0.2806   -6.0643 C   0  0  0  0  0  0  0  0  0  0  0  0
    2.3429    0.8386   -7.9926 O   0  0  0  0  0  0  0  0  0  0  0  0
    1.5511    0.9690   -5.6437 O   0  0  0  0  0  0  0  0  0  0  0  0
    2.0044   -1.2591   -6.6673 O   0  0  0  0  0  0  0  0  0  0  0  0
    4.8873   -0.3882   -6.8969 F   0  0  0  0  0  0  0  0  0  0  0  0
    4.4865    1.5571   -6.0062 F   0  0  0  0  0  0  0  0  0  0  0  0
    4.1887   -0.2547   -4.8397 F   0  0  0  0  0  0  0  0  0  0  0  0
   -4.2191   -0.5246   -4.1934 O   0  0  0  0  0  0  0  0  0  0  0  0
   -5.4327    0.1426   -3.8375 C   0  0  0  0  0  0  0  0  0  0  0  0
   -5.9643   -0.5481   -3.1835 H   0  0  0  0  0  0  0  0  0  0  0  0
   -6.0430    0.3506   -4.7231 H   0  0  0  0  0  0  0  0  0  0  0  0
   -5.2273    1.0731   -3.2971 H   0  0  0  0  0  0  0  0  0  0  0  0
  1  6  1  0  0  0  0
  1  7  1  0  0  0  0
  2  1  2  0  0  0  0
  3  4  2  0  0  0  0
  3  2  1  0  0  0  0
  4  5  1  0  0  0  0
  5 10  1  0  0  0  0
  5  6  2  0  0  0  0
  6 21  1  0  0  0  0
  8  2  1  0  0  0  0
  9  4  1  0  0  0  0
 11  3  1  0  0  0  0
 12 11  1  0  0  0  0
 13 14  1  0  0  0  0
 13 16  1  0  0  0  0
 14 19  1  0  0  0  0
 14 20  1  0  0  0  0
 15 13  2  0  0  0  0
 17 13  2  0  0  0  0
 18 14  1  0  0  0  0
 21 22  1  0  0  0  0
 22 25  1  0  0  0  0
 22 23  1  0  0  0  0
 24 22  1  0  0  0  0
M  RAD  3  11   2  12   3  16   2
M  END
