Coordinates from ORCA-job p-CH3O-Ph-N2-X-OTf-B3LYPG-6-31G_dp-scan-d09-49-n400
 OpenBabel08281820593D

 25 24  0  0  0  0  0  0  0  0999 V2000
   -1.6475    0.0720   -4.7929 C   0  0  0  0  0  0  0  0  0  0  0  0
   -0.7265    0.9594   -5.3559 C   0  0  0  0  0  0  0  0  0  0  0  0
   -1.3645    1.9371   -6.1621 C   0  0  0  0  0  0  0  0  0  0  0  0
   -2.7523    2.0718   -6.4207 C   0  0  0  0  0  0  0  0  0  0  0  0
   -3.5948    1.1582   -5.8307 C   0  0  0  0  0  0  0  0  0  0  0  0
   -3.0364    0.1458   -5.0051 C   0  0  0  0  0  0  0  0  0  0  0  0
   -1.3040   -0.7360   -4.1496 H   0  0  0  0  0  0  0  0  0  0  0  0
    0.8802    0.7945   -5.0867 H   0  0  0  0  0  0  0  0  0  0  0  0
   -3.1377    2.8611   -7.0599 H   0  0  0  0  0  0  0  0  0  0  0  0
   -4.6617    1.2204   -6.0041 H   0  0  0  0  0  0  0  0  0  0  0  0
   -0.5506    2.8653   -6.7622 N   0  0  0  0  0  0  0  0  0  0  0  0
    0.1361    3.6098   -7.2384 N   0  0  0  0  0  0  0  0  0  0  0  0
    2.8282    0.8682   -6.0529 S   0  0  0  0  0  0  0  0  0  0  0  0
    2.9422   -0.8543   -6.7435 C   0  0  0  0  0  0  0  0  0  0  0  0
    2.1921    1.6720   -7.1008 O   0  0  0  0  0  0  0  0  0  0  0  0
    4.1514    1.2041   -5.5536 O   0  0  0  0  0  0  0  0  0  0  0  0
    1.8405    0.6320   -4.8590 O   0  0  0  0  0  0  0  0  0  0  0  0
    1.7240   -1.2765   -7.1051 F   0  0  0  0  0  0  0  0  0  0  0  0
    3.7381   -0.8486   -7.8161 F   0  0  0  0  0  0  0  0  0  0  0  0
    3.4401   -1.6893   -5.8302 F   0  0  0  0  0  0  0  0  0  0  0  0
   -3.7803   -0.7905   -4.3853 O   0  0  0  0  0  0  0  0  0  0  0  0
   -5.1977   -0.7919   -4.5440 C   0  0  0  0  0  0  0  0  0  0  0  0
   -5.5597   -1.6330   -3.9528 H   0  0  0  0  0  0  0  0  0  0  0  0
   -5.4823   -0.9369   -5.5924 H   0  0  0  0  0  0  0  0  0  0  0  0
   -5.6428    0.1355   -4.1659 H   0  0  0  0  0  0  0  0  0  0  0  0
  1  7  1  0  0  0  0
  2  1  2  0  0  0  0
  3  2  1  0  0  0  0
  4  3  2  0  0  0  0
  4  5  1  0  0  0  0
  5  6  2  0  0  0  0
  6  1  1  0  0  0  0
  6 21  1  0  0  0  0
  8 17  1  0  0  0  0
  9  4  1  0  0  0  0
 10  5  1  0  0  0  0
 11  3  1  0  0  0  0
 12 11  1  0  0  0  0
 13 16  2  0  0  0  0
 13 17  1  0  0  0  0
 14 13  1  0  0  0  0
 14 20  1  0  0  0  0
 15 13  2  0  0  0  0
 18 14  1  0  0  0  0
 19 14  1  0  0  0  0
 22 21  1  0  0  0  0
 22 25  1  0  0  0  0
 22 23  1  0  0  0  0
 24 22  1  0  0  0  0
M  RAD  3   2   2  11   2  12   3
M  END
