Coordinates from ORCA-job p-CH3O-Ph-N2-X-OTf-B3LYPG-6-31G_dp-scan-d09-49-n400
 OpenBabel08281820593D

 25 24  0  0  0  0  0  0  0  0999 V2000
   -2.2131   -0.6624   -5.2437 C   0  0  0  0  0  0  0  0  0  0  0  0
   -1.1876   -0.1454   -6.0056 C   0  0  0  0  0  0  0  0  0  0  0  0
   -1.3511    1.1570   -6.5292 C   0  0  0  0  0  0  0  0  0  0  0  0
   -2.5042    1.9253   -6.2889 C   0  0  0  0  0  0  0  0  0  0  0  0
   -3.5168    1.3942   -5.5098 C   0  0  0  0  0  0  0  0  0  0  0  0
   -3.3771    0.0927   -4.9825 C   0  0  0  0  0  0  0  0  0  0  0  0
   -2.1372   -1.6563   -4.8190 H   0  0  0  0  0  0  0  0  0  0  0  0
   -0.2747   -0.7002   -6.1805 H   0  0  0  0  0  0  0  0  0  0  0  0
   -2.5909    2.9216   -6.7074 H   0  0  0  0  0  0  0  0  0  0  0  0
   -4.4028    1.9849   -5.3172 H   0  0  0  0  0  0  0  0  0  0  0  0
   -0.3818    1.7143   -7.3268 N   0  0  0  0  0  0  0  0  0  0  0  0
    0.3874    2.1485   -8.0173 N   0  0  0  0  0  0  0  0  0  0  0  0
    2.3707    0.0591   -6.6705 S   0  0  0  0  0  0  0  0  0  0  0  0
    4.1230    0.3697   -6.1424 C   0  0  0  0  0  0  0  0  0  0  0  0
    2.2771    0.7032   -8.0177 O   0  0  0  0  0  0  0  0  0  0  0  0
    1.5536    0.7671   -5.6469 O   0  0  0  0  0  0  0  0  0  0  0  0
    2.2255   -1.4080   -6.6714 O   0  0  0  0  0  0  0  0  0  0  0  0
    4.9809   -0.2026   -6.9971 F   0  0  0  0  0  0  0  0  0  0  0  0
    4.3745    1.6874   -6.1034 F   0  0  0  0  0  0  0  0  0  0  0  0
    4.3354   -0.1375   -4.9194 F   0  0  0  0  0  0  0  0  0  0  0  0
   -4.2975   -0.5147   -4.2211 O   0  0  0  0  0  0  0  0  0  0  0  0
   -5.5060    0.1724   -3.8858 C   0  0  0  0  0  0  0  0  0  0  0  0
   -6.0728   -0.5206   -3.2645 H   0  0  0  0  0  0  0  0  0  0  0  0
   -6.0843    0.4151   -4.7839 H   0  0  0  0  0  0  0  0  0  0  0  0
   -5.2959    1.0852   -3.3178 H   0  0  0  0  0  0  0  0  0  0  0  0
  1  6  1  0  0  0  0
  1  7  1  0  0  0  0
  2  1  2  0  0  0  0
  3  4  2  0  0  0  0
  3  2  1  0  0  0  0
  4  5  1  0  0  0  0
  5 10  1  0  0  0  0
  5  6  2  0  0  0  0
  6 21  1  0  0  0  0
  8  2  1  0  0  0  0
  9  4  1  0  0  0  0
 11  3  1  0  0  0  0
 12 11  1  0  0  0  0
 13 14  1  0  0  0  0
 13 16  1  0  0  0  0
 14 19  1  0  0  0  0
 14 20  1  0  0  0  0
 15 13  2  0  0  0  0
 17 13  2  0  0  0  0
 18 14  1  0  0  0  0
 21 22  1  0  0  0  0
 22 25  1  0  0  0  0
 22 23  1  0  0  0  0
 24 22  1  0  0  0  0
M  RAD  3  11   2  12   3  16   2
M  END
