Coordinates from ORCA-job p-CH3O-Ph-N2-X-OTf-B3LYPG-6-31G_dp-scan-d09-49-n400
 OpenBabel08281820593D

 25 24  0  0  0  0  0  0  0  0999 V2000
   -2.3509   -0.7252   -4.9641 C   0  0  0  0  0  0  0  0  0  0  0  0
   -1.2311   -0.3791   -5.6915 C   0  0  0  0  0  0  0  0  0  0  0  0
   -1.2225    0.8753   -6.3335 C   0  0  0  0  0  0  0  0  0  0  0  0
   -2.3059    1.7706   -6.2462 C   0  0  0  0  0  0  0  0  0  0  0  0
   -3.4197    1.4087   -5.5093 C   0  0  0  0  0  0  0  0  0  0  0  0
   -3.4503    0.1539   -4.8636 C   0  0  0  0  0  0  0  0  0  0  0  0
   -2.4051   -1.6784   -4.4511 H   0  0  0  0  0  0  0  0  0  0  0  0
   -0.3575   -1.0147   -5.7717 H   0  0  0  0  0  0  0  0  0  0  0  0
   -2.2638    2.7286   -6.7525 H   0  0  0  0  0  0  0  0  0  0  0  0
   -4.2542    2.0945   -5.4392 H   0  0  0  0  0  0  0  0  0  0  0  0
   -0.1504    1.2759   -7.1032 N   0  0  0  0  0  0  0  0  0  0  0  0
    0.5956    1.7419   -7.8023 N   0  0  0  0  0  0  0  0  0  0  0  0
    2.7570   -0.4410   -7.0692 S   0  0  0  0  0  0  0  0  0  0  0  0
    3.7688    0.8414   -6.1858 C   0  0  0  0  0  0  0  0  0  0  0  0
    2.3410    0.2695   -8.3176 O   0  0  0  0  0  0  0  0  0  0  0  0
    1.6102   -0.6327   -6.1339 O   0  0  0  0  0  0  0  0  0  0  0  0
    3.6600   -1.5785   -7.2522 O   0  0  0  0  0  0  0  0  0  0  0  0
    4.8433    1.1869   -6.9043 F   0  0  0  0  0  0  0  0  0  0  0  0
    3.0263    1.9527   -5.9806 F   0  0  0  0  0  0  0  0  0  0  0  0
    4.1791    0.3929   -4.9919 F   0  0  0  0  0  0  0  0  0  0  0  0
   -4.4803   -0.2912   -4.1295 O   0  0  0  0  0  0  0  0  0  0  0  0
   -5.6377    0.5315   -3.9610 C   0  0  0  0  0  0  0  0  0  0  0  0
   -6.3184   -0.0463   -3.3364 H   0  0  0  0  0  0  0  0  0  0  0  0
   -6.1150    0.7433   -4.9239 H   0  0  0  0  0  0  0  0  0  0  0  0
   -5.3844    1.4697   -3.4557 H   0  0  0  0  0  0  0  0  0  0  0  0
  1  6  1  0  0  0  0
  1  7  1  0  0  0  0
  2  1  2  0  0  0  0
  3  4  2  0  0  0  0
  3  2  1  0  0  0  0
  4  5  1  0  0  0  0
  5 10  1  0  0  0  0
  5  6  2  0  0  0  0
  6 21  1  0  0  0  0
  8  2  1  0  0  0  0
  9  4  1  0  0  0  0
 11  3  1  0  0  0  0
 12 11  1  0  0  0  0
 13 14  1  0  0  0  0
 13 16  1  0  0  0  0
 14 19  1  0  0  0  0
 14 20  1  0  0  0  0
 15 13  2  0  0  0  0
 17 13  2  0  0  0  0
 18 14  1  0  0  0  0
 21 22  1  0  0  0  0
 22 25  1  0  0  0  0
 22 23  1  0  0  0  0
 24 22  1  0  0  0  0
M  RAD  3  11   2  12   3  16   2
M  END
