Coordinates from ORCA-job p-CH3O-Ph-N2-X-OTf-B3LYPG-6-31G_dp-scan-d09-49-n400
 OpenBabel08281820593D

 25 24  0  0  0  0  0  0  0  0999 V2000
   -1.8947   -0.1795   -4.8367 C   0  0  0  0  0  0  0  0  0  0  0  0
   -0.9315    0.6026   -5.4408 C   0  0  0  0  0  0  0  0  0  0  0  0
   -1.3912    1.7096   -6.1906 C   0  0  0  0  0  0  0  0  0  0  0  0
   -2.7514    2.0403   -6.3331 C   0  0  0  0  0  0  0  0  0  0  0  0
   -3.6933    1.2350   -5.7220 C   0  0  0  0  0  0  0  0  0  0  0  0
   -3.2685    0.1159   -4.9686 C   0  0  0  0  0  0  0  0  0  0  0  0
   -1.6068   -1.0414   -4.2447 H   0  0  0  0  0  0  0  0  0  0  0  0
    0.1544    0.3942   -5.3288 H   0  0  0  0  0  0  0  0  0  0  0  0
   -3.0500    2.9045   -6.9165 H   0  0  0  0  0  0  0  0  0  0  0  0
   -4.7441    1.4727   -5.8276 H   0  0  0  0  0  0  0  0  0  0  0  0
   -0.4606    2.5079   -6.8094 N   0  0  0  0  0  0  0  0  0  0  0  0
    0.4187    3.0179   -7.2818 N   0  0  0  0  0  0  0  0  0  0  0  0
    2.6820    0.7904   -6.1341 S   0  0  0  0  0  0  0  0  0  0  0  0
    3.7669   -0.5858   -6.7497 C   0  0  0  0  0  0  0  0  0  0  0  0
    1.8832    1.1476   -7.3513 O   0  0  0  0  0  0  0  0  0  0  0  0
    3.6011    1.8274   -5.6508 O   0  0  0  0  0  0  0  0  0  0  0  0
    1.8395    0.1293   -5.0933 O   0  0  0  0  0  0  0  0  0  0  0  0
    3.0215   -1.5990   -7.2196 F   0  0  0  0  0  0  0  0  0  0  0  0
    4.5609   -0.1511   -7.7373 F   0  0  0  0  0  0  0  0  0  0  0  0
    4.5364   -1.0518   -5.7566 F   0  0  0  0  0  0  0  0  0  0  0  0
   -4.1026   -0.7211   -4.3372 O   0  0  0  0  0  0  0  0  0  0  0  0
   -5.5144   -0.5054   -4.4067 C   0  0  0  0  0  0  0  0  0  0  0  0
   -5.9618   -1.3090   -3.8231 H   0  0  0  0  0  0  0  0  0  0  0  0
   -5.8715   -0.5618   -5.4405 H   0  0  0  0  0  0  0  0  0  0  0  0
   -5.7881    0.4608   -3.9692 H   0  0  0  0  0  0  0  0  0  0  0  0
  1  7  1  0  0  0  0
  2  8  1  0  0  0  0
  2  1  2  0  0  0  0
  3  2  1  0  0  0  0
  4  3  2  0  0  0  0
  4  5  1  0  0  0  0
  5  6  2  0  0  0  0
  6  1  1  0  0  0  0
  6 21  1  0  0  0  0
  9  4  1  0  0  0  0
 10  5  1  0  0  0  0
 11  3  1  0  0  0  0
 12 11  1  0  0  0  0
 13 16  2  0  0  0  0
 13 17  1  0  0  0  0
 14 13  1  0  0  0  0
 14 20  1  0  0  0  0
 15 13  2  0  0  0  0
 18 14  1  0  0  0  0
 19 14  1  0  0  0  0
 22 21  1  0  0  0  0
 22 25  1  0  0  0  0
 22 23  1  0  0  0  0
 24 22  1  0  0  0  0
M  RAD  3  11   2  12   3  17   2
M  END
