Coordinates from ORCA-job p-CH3O-Ph-N2-X-OTf-B3LYPG-6-31G_dp-scan-d09-49-n400
 OpenBabel08281820593D

 25 24  0  0  0  0  0  0  0  0999 V2000
   -2.2042   -0.6626   -5.2563 C   0  0  0  0  0  0  0  0  0  0  0  0
   -1.1860   -0.1446   -6.0272 C   0  0  0  0  0  0  0  0  0  0  0  0
   -1.3571    1.1566   -6.5516 C   0  0  0  0  0  0  0  0  0  0  0  0
   -2.5100    1.9227   -6.3035 C   0  0  0  0  0  0  0  0  0  0  0  0
   -3.5148    1.3907   -5.5152 C   0  0  0  0  0  0  0  0  0  0  0  0
   -3.3674    0.0906   -4.9864 C   0  0  0  0  0  0  0  0  0  0  0  0
   -2.1225   -1.6558   -4.8307 H   0  0  0  0  0  0  0  0  0  0  0  0
   -0.2749   -0.7004   -6.2106 H   0  0  0  0  0  0  0  0  0  0  0  0
   -2.6021    2.9183   -6.7225 H   0  0  0  0  0  0  0  0  0  0  0  0
   -4.4006    1.9795   -5.3164 H   0  0  0  0  0  0  0  0  0  0  0  0
   -0.3937    1.7156   -7.3546 N   0  0  0  0  0  0  0  0  0  0  0  0
    0.3761    2.1482   -8.0455 N   0  0  0  0  0  0  0  0  0  0  0  0
    2.3579    0.0872   -6.6631 S   0  0  0  0  0  0  0  0  0  0  0  0
    4.1131    0.3538   -6.1204 C   0  0  0  0  0  0  0  0  0  0  0  0
    2.2919    0.7326   -8.0111 O   0  0  0  0  0  0  0  0  0  0  0  0
    1.5484    0.8124   -5.6463 O   0  0  0  0  0  0  0  0  0  0  0  0
    2.1772   -1.3769   -6.6662 O   0  0  0  0  0  0  0  0  0  0  0  0
    4.9635   -0.2389   -6.9685 F   0  0  0  0  0  0  0  0  0  0  0  0
    4.3968    1.6646   -6.0776 F   0  0  0  0  0  0  0  0  0  0  0  0
    4.3025   -0.1598   -4.8962 F   0  0  0  0  0  0  0  0  0  0  0  0
   -4.2800   -0.5173   -4.2158 O   0  0  0  0  0  0  0  0  0  0  0  0
   -5.4866    0.1681   -3.8708 C   0  0  0  0  0  0  0  0  0  0  0  0
   -6.0458   -0.5244   -3.2421 H   0  0  0  0  0  0  0  0  0  0  0  0
   -6.0742    0.4069   -4.7640 H   0  0  0  0  0  0  0  0  0  0  0  0
   -5.2732    1.0829   -3.3075 H   0  0  0  0  0  0  0  0  0  0  0  0
  1  6  1  0  0  0  0
  1  7  1  0  0  0  0
  2  1  2  0  0  0  0
  3  4  2  0  0  0  0
  3  2  1  0  0  0  0
  4  5  1  0  0  0  0
  5 10  1  0  0  0  0
  5  6  2  0  0  0  0
  6 21  1  0  0  0  0
  8  2  1  0  0  0  0
  9  4  1  0  0  0  0
 11  3  1  0  0  0  0
 12 11  1  0  0  0  0
 13 14  1  0  0  0  0
 13 16  1  0  0  0  0
 14 19  1  0  0  0  0
 14 20  1  0  0  0  0
 15 13  2  0  0  0  0
 17 13  2  0  0  0  0
 18 14  1  0  0  0  0
 21 22  1  0  0  0  0
 22 25  1  0  0  0  0
 22 23  1  0  0  0  0
 24 22  1  0  0  0  0
M  RAD  3  11   2  12   3  16   2
M  END
