Coordinates from ORCA-job p-CH3O-Ph-N2-X-OTf-B3LYPG-6-31G_dp-scan-d09-49-n400
 OpenBabel08281820593D

 25 24  0  0  0  0  0  0  0  0999 V2000
   -2.1382   -0.6371   -5.2672 C   0  0  0  0  0  0  0  0  0  0  0  0
   -1.1510   -0.1090   -6.0711 C   0  0  0  0  0  0  0  0  0  0  0  0
   -1.3755    1.1739   -6.6216 C   0  0  0  0  0  0  0  0  0  0  0  0
   -2.5469    1.9109   -6.3706 C   0  0  0  0  0  0  0  0  0  0  0  0
   -3.5183    1.3677   -5.5497 C   0  0  0  0  0  0  0  0  0  0  0  0
   -3.3181    0.0868   -4.9908 C   0  0  0  0  0  0  0  0  0  0  0  0
   -2.0174   -1.6167   -4.8200 H   0  0  0  0  0  0  0  0  0  0  0  0
   -0.2291   -0.6484   -6.2684 H   0  0  0  0  0  0  0  0  0  0  0  0
   -2.6779    2.8929   -6.8110 H   0  0  0  0  0  0  0  0  0  0  0  0
   -4.4185    1.9330   -5.3477 H   0  0  0  0  0  0  0  0  0  0  0  0
   -0.4398    1.7445   -7.4474 N   0  0  0  0  0  0  0  0  0  0  0  0
    0.3250    2.1776   -8.1427 N   0  0  0  0  0  0  0  0  0  0  0  0
    2.3039    0.2268   -6.6424 S   0  0  0  0  0  0  0  0  0  0  0  0
    4.0626    0.2479   -6.0480 C   0  0  0  0  0  0  0  0  0  0  0  0
    2.3621    0.8744   -7.9872 O   0  0  0  0  0  0  0  0  0  0  0  0
    1.5602    1.0376   -5.6425 O   0  0  0  0  0  0  0  0  0  0  0  0
    1.9290   -1.2055   -6.6620 O   0  0  0  0  0  0  0  0  0  0  0  0
    4.8476   -0.4529   -6.8767 F   0  0  0  0  0  0  0  0  0  0  0  0
    4.5215    1.5064   -5.9861 F   0  0  0  0  0  0  0  0  0  0  0  0
    4.1424   -0.2928   -4.8236 F   0  0  0  0  0  0  0  0  0  0  0  0
   -4.1948   -0.5278   -4.1852 O   0  0  0  0  0  0  0  0  0  0  0  0
   -5.4137    0.1299   -3.8294 C   0  0  0  0  0  0  0  0  0  0  0  0
   -5.9352   -0.5608   -3.1672 H   0  0  0  0  0  0  0  0  0  0  0  0
   -6.0300    0.3241   -4.7139 H   0  0  0  0  0  0  0  0  0  0  0  0
   -5.2155    1.0669   -3.2977 H   0  0  0  0  0  0  0  0  0  0  0  0
  1  6  1  0  0  0  0
  1  7  1  0  0  0  0
  2  1  2  0  0  0  0
  3  4  2  0  0  0  0
  3  2  1  0  0  0  0
  4  5  1  0  0  0  0
  5 10  1  0  0  0  0
  5  6  2  0  0  0  0
  6 21  1  0  0  0  0
  8  2  1  0  0  0  0
  9  4  1  0  0  0  0
 11  3  1  0  0  0  0
 12 11  1  0  0  0  0
 13 14  1  0  0  0  0
 13 16  1  0  0  0  0
 14 19  1  0  0  0  0
 14 20  1  0  0  0  0
 15 13  2  0  0  0  0
 17 13  2  0  0  0  0
 18 14  1  0  0  0  0
 21 22  1  0  0  0  0
 22 25  1  0  0  0  0
 22 23  1  0  0  0  0
 24 22  1  0  0  0  0
M  RAD  3  11   2  12   3  16   2
M  END
