Coordinates from ORCA-job p-CH3O-Ph-N2-X-OTf-B3LYPG-6-31G_dp-scan-d09-49-n400
 OpenBabel08281820593D

 25 24  0  0  0  0  0  0  0  0999 V2000
   -1.6717    0.0734   -4.7970 C   0  0  0  0  0  0  0  0  0  0  0  0
   -0.7442    0.9523   -5.3712 C   0  0  0  0  0  0  0  0  0  0  0  0
   -1.3939    1.9164   -6.1858 C   0  0  0  0  0  0  0  0  0  0  0  0
   -2.7824    2.0517   -6.4461 C   0  0  0  0  0  0  0  0  0  0  0  0
   -3.6233    1.1463   -5.8425 C   0  0  0  0  0  0  0  0  0  0  0  0
   -3.0605    0.1446   -5.0055 C   0  0  0  0  0  0  0  0  0  0  0  0
   -1.3322   -0.7284   -4.1427 H   0  0  0  0  0  0  0  0  0  0  0  0
    1.0286    0.7724   -5.0441 H   0  0  0  0  0  0  0  0  0  0  0  0
   -3.1688    2.8334   -7.0945 H   0  0  0  0  0  0  0  0  0  0  0  0
   -4.6909    1.2057   -6.0130 H   0  0  0  0  0  0  0  0  0  0  0  0
   -0.5800    2.8367   -6.7993 N   0  0  0  0  0  0  0  0  0  0  0  0
    0.1102    3.5735   -7.2840 N   0  0  0  0  0  0  0  0  0  0  0  0
    2.8988    0.8747   -6.0220 S   0  0  0  0  0  0  0  0  0  0  0  0
    2.9470   -0.8277   -6.7718 C   0  0  0  0  0  0  0  0  0  0  0  0
    2.2901    1.7428   -7.0286 O   0  0  0  0  0  0  0  0  0  0  0  0
    4.2224    1.1372   -5.4875 O   0  0  0  0  0  0  0  0  0  0  0  0
    1.8985    0.6241   -4.8221 O   0  0  0  0  0  0  0  0  0  0  0  0
    1.7151   -1.1892   -7.1453 F   0  0  0  0  0  0  0  0  0  0  0  0
    3.7434   -0.8079   -7.8429 F   0  0  0  0  0  0  0  0  0  0  0  0
    3.4151   -1.7082   -5.8879 F   0  0  0  0  0  0  0  0  0  0  0  0
   -3.8046   -0.7839   -4.3708 O   0  0  0  0  0  0  0  0  0  0  0  0
   -5.2218   -0.7832   -4.5230 C   0  0  0  0  0  0  0  0  0  0  0  0
   -5.5843   -1.6154   -3.9192 H   0  0  0  0  0  0  0  0  0  0  0  0
   -5.5128   -0.9412   -5.5679 H   0  0  0  0  0  0  0  0  0  0  0  0
   -5.6636    0.1502   -4.1553 H   0  0  0  0  0  0  0  0  0  0  0  0
  1  7  1  0  0  0  0
  2  1  2  0  0  0  0
  3  2  1  0  0  0  0
  4  3  2  0  0  0  0
  4  5  1  0  0  0  0
  5  6  2  0  0  0  0
  6  1  1  0  0  0  0
  6 21  1  0  0  0  0
  8 17  1  0  0  0  0
  9  4  1  0  0  0  0
 10  5  1  0  0  0  0
 11  3  1  0  0  0  0
 12 11  1  0  0  0  0
 13 16  2  0  0  0  0
 13 17  1  0  0  0  0
 14 13  1  0  0  0  0
 14 20  1  0  0  0  0
 15 13  2  0  0  0  0
 18 14  1  0  0  0  0
 19 14  1  0  0  0  0
 22 21  1  0  0  0  0
 22 25  1  0  0  0  0
 22 23  1  0  0  0  0
 24 22  1  0  0  0  0
M  RAD  3   2   2  11   2  12   3
M  END
