Coordinates from ORCA-job p-CH3O-Ph-N2-X-OTf-B3LYPG-6-31G_dp-scan-d09-49-n400
 OpenBabel08281820593D

 25 24  0  0  0  0  0  0  0  0999 V2000
   -1.6555    0.0190   -4.7912 C   0  0  0  0  0  0  0  0  0  0  0  0
   -0.7335    0.9016   -5.3386 C   0  0  0  0  0  0  0  0  0  0  0  0
   -1.3193    1.9303   -6.1162 C   0  0  0  0  0  0  0  0  0  0  0  0
   -2.7032    2.1037   -6.3537 C   0  0  0  0  0  0  0  0  0  0  0  0
   -3.5696    1.1953   -5.7868 C   0  0  0  0  0  0  0  0  0  0  0  0
   -3.0439    0.1408   -4.9964 C   0  0  0  0  0  0  0  0  0  0  0  0
   -1.3162   -0.8128   -4.1796 H   0  0  0  0  0  0  0  0  0  0  0  0
    0.5722    0.7552   -5.1688 H   0  0  0  0  0  0  0  0  0  0  0  0
   -3.0699    2.9221   -6.9655 H   0  0  0  0  0  0  0  0  0  0  0  0
   -4.6344    1.2965   -5.9538 H   0  0  0  0  0  0  0  0  0  0  0  0
   -0.4808    2.8511   -6.6902 N   0  0  0  0  0  0  0  0  0  0  0  0
    0.2198    3.5908   -7.1496 N   0  0  0  0  0  0  0  0  0  0  0  0
    2.6872    0.8547   -6.1319 S   0  0  0  0  0  0  0  0  0  0  0  0
    3.0871   -0.8647   -6.7077 C   0  0  0  0  0  0  0  0  0  0  0  0
    1.9638    1.4699   -7.2629 O   0  0  0  0  0  0  0  0  0  0  0  0
    3.9557    1.4407   -5.7090 O   0  0  0  0  0  0  0  0  0  0  0  0
    1.7315    0.5706   -4.9695 O   0  0  0  0  0  0  0  0  0  0  0  0
    1.9583   -1.5134   -7.0366 F   0  0  0  0  0  0  0  0  0  0  0  0
    3.8804   -0.8137   -7.7838 F   0  0  0  0  0  0  0  0  0  0  0  0
    3.7087   -1.5512   -5.7434 F   0  0  0  0  0  0  0  0  0  0  0  0
   -3.8084   -0.7910   -4.4047 O   0  0  0  0  0  0  0  0  0  0  0  0
   -5.2274   -0.7537   -4.5625 C   0  0  0  0  0  0  0  0  0  0  0  0
   -5.6077   -1.6053   -3.9990 H   0  0  0  0  0  0  0  0  0  0  0  0
   -5.5124   -0.8576   -5.6152 H   0  0  0  0  0  0  0  0  0  0  0  0
   -5.6483    0.1713   -4.1533 H   0  0  0  0  0  0  0  0  0  0  0  0
  1  7  1  0  0  0  0
  2  1  2  0  0  0  0
  3  2  1  0  0  0  0
  4  3  2  0  0  0  0
  4  5  1  0  0  0  0
  5  6  2  0  0  0  0
  6  1  1  0  0  0  0
  6 21  1  0  0  0  0
  8 17  1  0  0  0  0
  9  4  1  0  0  0  0
 10  5  1  0  0  0  0
 11  3  1  0  0  0  0
 12 11  1  0  0  0  0
 13 16  2  0  0  0  0
 13 17  1  0  0  0  0
 14 13  1  0  0  0  0
 14 20  1  0  0  0  0
 15 13  2  0  0  0  0
 18 14  1  0  0  0  0
 19 14  1  0  0  0  0
 22 21  1  0  0  0  0
 22 25  1  0  0  0  0
 22 23  1  0  0  0  0
 24 22  1  0  0  0  0
M  RAD  3   2   2  11   2  12   3
M  END
