Coordinates from ORCA-job p-CH3O-Ph-N2-X-OTf-B3LYPG-6-31G_dp-scan-d09-49-n400
 OpenBabel08281820593D

 25 24  0  0  0  0  0  0  0  0999 V2000
   -1.7115   -0.0361   -4.7936 C   0  0  0  0  0  0  0  0  0  0  0  0
   -0.7812    0.8215   -5.3545 C   0  0  0  0  0  0  0  0  0  0  0  0
   -1.3238    1.8756   -6.1273 C   0  0  0  0  0  0  0  0  0  0  0  0
   -2.7031    2.0880   -6.3430 C   0  0  0  0  0  0  0  0  0  0  0  0
   -3.5930    1.2064   -5.7671 C   0  0  0  0  0  0  0  0  0  0  0  0
   -3.0981    0.1335   -4.9843 C   0  0  0  0  0  0  0  0  0  0  0  0
   -1.3822   -0.8748   -4.1881 H   0  0  0  0  0  0  0  0  0  0  0  0
    0.3972    0.6713   -5.2077 H   0  0  0  0  0  0  0  0  0  0  0  0
   -3.0507    2.9184   -6.9489 H   0  0  0  0  0  0  0  0  0  0  0  0
   -4.6554    1.3448   -5.9224 H   0  0  0  0  0  0  0  0  0  0  0  0
   -0.4577    2.7661   -6.7067 N   0  0  0  0  0  0  0  0  0  0  0  0
    0.2787    3.4676   -7.1685 N   0  0  0  0  0  0  0  0  0  0  0  0
    2.6633    0.8420   -6.1315 S   0  0  0  0  0  0  0  0  0  0  0  0
    3.2728   -0.8055   -6.7321 C   0  0  0  0  0  0  0  0  0  0  0  0
    1.9098    1.3907   -7.2866 O   0  0  0  0  0  0  0  0  0  0  0  0
    3.8587    1.5688   -5.7014 O   0  0  0  0  0  0  0  0  0  0  0  0
    1.7256    0.4478   -5.0119 O   0  0  0  0  0  0  0  0  0  0  0  0
    2.2395   -1.5715   -7.1224 F   0  0  0  0  0  0  0  0  0  0  0  0
    4.0977   -0.6441   -7.7745 F   0  0  0  0  0  0  0  0  0  0  0  0
    3.9311   -1.4479   -5.7591 F   0  0  0  0  0  0  0  0  0  0  0  0
   -3.8839   -0.7719   -4.3845 O   0  0  0  0  0  0  0  0  0  0  0  0
   -5.3040   -0.6867   -4.5224 C   0  0  0  0  0  0  0  0  0  0  0  0
   -5.7039   -1.5256   -3.9539 H   0  0  0  0  0  0  0  0  0  0  0  0
   -5.6057   -0.7799   -5.5711 H   0  0  0  0  0  0  0  0  0  0  0  0
   -5.6862    0.2518   -4.1063 H   0  0  0  0  0  0  0  0  0  0  0  0
  1  7  1  0  0  0  0
  2  8  1  0  0  0  0
  2  1  2  0  0  0  0
  3  2  1  0  0  0  0
  4  3  2  0  0  0  0
  4  5  1  0  0  0  0
  5  6  2  0  0  0  0
  6  1  1  0  0  0  0
  6 21  1  0  0  0  0
  9  4  1  0  0  0  0
 10  5  1  0  0  0  0
 11  3  1  0  0  0  0
 12 11  1  0  0  0  0
 13 16  2  0  0  0  0
 13 17  1  0  0  0  0
 14 13  1  0  0  0  0
 14 20  1  0  0  0  0
 15 13  2  0  0  0  0
 18 14  1  0  0  0  0
 19 14  1  0  0  0  0
 22 21  1  0  0  0  0
 22 25  1  0  0  0  0
 22 23  1  0  0  0  0
 24 22  1  0  0  0  0
M  RAD  3  11   2  12   3  17   2
M  END
