Coordinates from ORCA-job p-CH3O-Ph-N2-X-OTf-B3LYPG-6-31G_dp-scan-d09-49-n400
 OpenBabel08281820593D

 25 24  0  0  0  0  0  0  0  0999 V2000
   -2.3475   -0.7716   -5.0040 C   0  0  0  0  0  0  0  0  0  0  0  0
   -1.2431   -0.4728   -5.7750 C   0  0  0  0  0  0  0  0  0  0  0  0
   -1.2091    0.7755   -6.4260 C   0  0  0  0  0  0  0  0  0  0  0  0
   -2.2541    1.7114   -6.3048 C   0  0  0  0  0  0  0  0  0  0  0  0
   -3.3507    1.3997   -5.5204 C   0  0  0  0  0  0  0  0  0  0  0  0
   -3.4058    0.1513   -4.8650 C   0  0  0  0  0  0  0  0  0  0  0  0
   -2.4195   -1.7197   -4.4838 H   0  0  0  0  0  0  0  0  0  0  0  0
   -0.4034   -1.1470   -5.8819 H   0  0  0  0  0  0  0  0  0  0  0  0
   -2.1947    2.6639   -6.8197 H   0  0  0  0  0  0  0  0  0  0  0  0
   -4.1529    2.1196   -5.4217 H   0  0  0  0  0  0  0  0  0  0  0  0
   -0.1535    1.1360   -7.2413 N   0  0  0  0  0  0  0  0  0  0  0  0
    0.5329    1.6339   -7.9790 N   0  0  0  0  0  0  0  0  0  0  0  0
    2.7929   -0.4006   -7.1303 S   0  0  0  0  0  0  0  0  0  0  0  0
    3.5739    0.8838   -6.0401 C   0  0  0  0  0  0  0  0  0  0  0  0
    2.4725    0.3691   -8.3698 O   0  0  0  0  0  0  0  0  0  0  0  0
    1.5598   -0.7459   -6.3628 O   0  0  0  0  0  0  0  0  0  0  0  0
    3.8023   -1.4510   -7.2687 O   0  0  0  0  0  0  0  0  0  0  0  0
    4.6775    1.3905   -6.6000 F   0  0  0  0  0  0  0  0  0  0  0  0
    2.7030    1.8996   -5.8356 F   0  0  0  0  0  0  0  0  0  0  0  0
    3.8967    0.3717   -4.8451 F   0  0  0  0  0  0  0  0  0  0  0  0
   -4.4225   -0.2482   -4.0868 O   0  0  0  0  0  0  0  0  0  0  0  0
   -5.5369    0.6227   -3.8770 C   0  0  0  0  0  0  0  0  0  0  0  0
   -6.2131    0.0786   -3.2181 H   0  0  0  0  0  0  0  0  0  0  0  0
   -6.0466    0.8462   -4.8205 H   0  0  0  0  0  0  0  0  0  0  0  0
   -5.2240    1.5538   -3.3924 H   0  0  0  0  0  0  0  0  0  0  0  0
  1  6  1  0  0  0  0
  1  7  1  0  0  0  0
  2  1  2  0  0  0  0
  3  4  2  0  0  0  0
  3  2  1  0  0  0  0
  4  5  1  0  0  0  0
  5 10  1  0  0  0  0
  5  6  2  0  0  0  0
  6 21  1  0  0  0  0
  8  2  1  0  0  0  0
  9  4  1  0  0  0  0
 11  3  1  0  0  0  0
 12 11  1  0  0  0  0
 13 16  1  0  0  0  0
 13 14  1  0  0  0  0
 14 19  1  0  0  0  0
 14 20  1  0  0  0  0
 15 13  2  0  0  0  0
 17 13  2  0  0  0  0
 18 14  1  0  0  0  0
 21 22  1  0  0  0  0
 22 25  1  0  0  0  0
 22 23  1  0  0  0  0
 24 22  1  0  0  0  0
M  RAD  3  11   2  12   3  16   2
M  END
