Coordinates from ORCA-job p-CH3O-Ph-N2-X-OTf-B3LYPG-6-31G_dp-scan-d09-49-n400
 OpenBabel08281820593D

 25 24  0  0  0  0  0  0  0  0999 V2000
   -1.9440   -0.2327   -4.8653 C   0  0  0  0  0  0  0  0  0  0  0  0
   -0.9674    0.5219   -5.4820 C   0  0  0  0  0  0  0  0  0  0  0  0
   -1.4004    1.6505   -6.2154 C   0  0  0  0  0  0  0  0  0  0  0  0
   -2.7509    2.0270   -6.3276 C   0  0  0  0  0  0  0  0  0  0  0  0
   -3.7088    1.2491   -5.7052 C   0  0  0  0  0  0  0  0  0  0  0  0
   -3.3092    0.1103   -4.9688 C   0  0  0  0  0  0  0  0  0  0  0  0
   -1.6739   -1.1076   -4.2842 H   0  0  0  0  0  0  0  0  0  0  0  0
    0.1063    0.2785   -5.3872 H   0  0  0  0  0  0  0  0  0  0  0  0
   -3.0306    2.9062   -6.8978 H   0  0  0  0  0  0  0  0  0  0  0  0
   -4.7525    1.5240   -5.7883 H   0  0  0  0  0  0  0  0  0  0  0  0
   -0.4559    2.4239   -6.8465 N   0  0  0  0  0  0  0  0  0  0  0  0
    0.4448    2.8904   -7.3268 N   0  0  0  0  0  0  0  0  0  0  0  0
    2.6532    0.7441   -6.1460 S   0  0  0  0  0  0  0  0  0  0  0  0
    3.9042   -0.4959   -6.7357 C   0  0  0  0  0  0  0  0  0  0  0  0
    1.8565    1.0223   -7.3880 O   0  0  0  0  0  0  0  0  0  0  0  0
    3.4349    1.8788   -5.6376 O   0  0  0  0  0  0  0  0  0  0  0  0
    1.8573   -0.0079   -5.1344 O   0  0  0  0  0  0  0  0  0  0  0  0
    3.2941   -1.5806   -7.2376 F   0  0  0  0  0  0  0  0  0  0  0  0
    4.6751    0.0378   -7.6924 F   0  0  0  0  0  0  0  0  0  0  0  0
    4.6884   -0.8820   -5.7201 F   0  0  0  0  0  0  0  0  0  0  0  0
   -4.1591   -0.7032   -4.3274 O   0  0  0  0  0  0  0  0  0  0  0  0
   -5.5634   -0.4373   -4.3664 C   0  0  0  0  0  0  0  0  0  0  0  0
   -6.0272   -1.2287   -3.7788 H   0  0  0  0  0  0  0  0  0  0  0  0
   -5.9434   -0.4737   -5.3930 H   0  0  0  0  0  0  0  0  0  0  0  0
   -5.7937    0.5350   -3.9174 H   0  0  0  0  0  0  0  0  0  0  0  0
  1  7  1  0  0  0  0
  2  8  1  0  0  0  0
  2  1  2  0  0  0  0
  3  2  1  0  0  0  0
  4  3  2  0  0  0  0
  4  5  1  0  0  0  0
  5  6  2  0  0  0  0
  6  1  1  0  0  0  0
  6 21  1  0  0  0  0
  9  4  1  0  0  0  0
 10  5  1  0  0  0  0
 11  3  1  0  0  0  0
 12 11  1  0  0  0  0
 13 16  2  0  0  0  0
 13 17  1  0  0  0  0
 14 13  1  0  0  0  0
 14 20  1  0  0  0  0
 15 13  2  0  0  0  0
 18 14  1  0  0  0  0
 19 14  1  0  0  0  0
 22 21  1  0  0  0  0
 22 25  1  0  0  0  0
 22 23  1  0  0  0  0
 24 22  1  0  0  0  0
M  RAD  3  11   2  12   3  17   2
M  END
