Coordinates from ORCA-job p-CH3O-Ph-N2-X-OTf-B3LYPG-6-31G_dp-scan-d09-49-n400
 OpenBabel08281820593D

 25 24  0  0  0  0  0  0  0  0999 V2000
   -1.6497    0.0322   -4.7960 C   0  0  0  0  0  0  0  0  0  0  0  0
   -0.7287    0.9185   -5.3443 C   0  0  0  0  0  0  0  0  0  0  0  0
   -1.3290    1.9384   -6.1232 C   0  0  0  0  0  0  0  0  0  0  0  0
   -2.7144    2.1036   -6.3631 C   0  0  0  0  0  0  0  0  0  0  0  0
   -3.5740    1.1912   -5.7936 C   0  0  0  0  0  0  0  0  0  0  0  0
   -3.0387    0.1429   -5.0004 C   0  0  0  0  0  0  0  0  0  0  0  0
   -1.3085   -0.7969   -4.1810 H   0  0  0  0  0  0  0  0  0  0  0  0
    0.6391    0.7665   -5.1596 H   0  0  0  0  0  0  0  0  0  0  0  0
   -3.0867    2.9180   -6.9772 H   0  0  0  0  0  0  0  0  0  0  0  0
   -4.6397    1.2836   -5.9601 H   0  0  0  0  0  0  0  0  0  0  0  0
   -0.4979    2.8639   -6.7012 N   0  0  0  0  0  0  0  0  0  0  0  0
    0.1973    3.6078   -7.1629 N   0  0  0  0  0  0  0  0  0  0  0  0
    2.7110    0.8562   -6.1208 S   0  0  0  0  0  0  0  0  0  0  0  0
    3.0543   -0.8719   -6.7084 C   0  0  0  0  0  0  0  0  0  0  0  0
    2.0035    1.5043   -7.2397 O   0  0  0  0  0  0  0  0  0  0  0  0
    3.9925    1.3953   -5.6804 O   0  0  0  0  0  0  0  0  0  0  0  0
    1.7460    0.5871   -4.9513 O   0  0  0  0  0  0  0  0  0  0  0  0
    1.9046   -1.4795   -7.0397 F   0  0  0  0  0  0  0  0  0  0  0  0
    3.8470   -0.8357   -7.7849 F   0  0  0  0  0  0  0  0  0  0  0  0
    3.6549   -1.5830   -5.7497 F   0  0  0  0  0  0  0  0  0  0  0  0
   -3.7971   -0.7933   -4.4054 O   0  0  0  0  0  0  0  0  0  0  0  0
   -5.2159   -0.7654   -4.5621 C   0  0  0  0  0  0  0  0  0  0  0  0
   -5.5907   -1.6177   -3.9959 H   0  0  0  0  0  0  0  0  0  0  0  0
   -5.5019   -0.8739   -5.6141 H   0  0  0  0  0  0  0  0  0  0  0  0
   -5.6429    0.1580   -4.1552 H   0  0  0  0  0  0  0  0  0  0  0  0
  1  7  1  0  0  0  0
  2  1  2  0  0  0  0
  3  2  1  0  0  0  0
  4  3  2  0  0  0  0
  4  5  1  0  0  0  0
  5  6  2  0  0  0  0
  6  1  1  0  0  0  0
  6 21  1  0  0  0  0
  8 17  1  0  0  0  0
  9  4  1  0  0  0  0
 10  5  1  0  0  0  0
 11  3  1  0  0  0  0
 12 11  1  0  0  0  0
 13 16  2  0  0  0  0
 13 17  1  0  0  0  0
 14 13  1  0  0  0  0
 14 20  1  0  0  0  0
 15 13  2  0  0  0  0
 18 14  1  0  0  0  0
 19 14  1  0  0  0  0
 22 21  1  0  0  0  0
 22 25  1  0  0  0  0
 22 23  1  0  0  0  0
 24 22  1  0  0  0  0
M  RAD  3   2   2  11   2  12   3
M  END
