Coordinates from ORCA-job p-CH3O-Ph-N2-X-OTf-B3LYPG-6-31G_dp-scan-d09-49-n400
 OpenBabel08281820593D

 25 24  0  0  0  0  0  0  0  0999 V2000
   -2.1801   -0.4800   -4.8639 C   0  0  0  0  0  0  0  0  0  0  0  0
   -1.0957    0.0767   -5.5081 C   0  0  0  0  0  0  0  0  0  0  0  0
   -1.2932    1.3006   -6.1841 C   0  0  0  0  0  0  0  0  0  0  0  0
   -2.5362    1.9595   -6.2095 C   0  0  0  0  0  0  0  0  0  0  0  0
   -3.6118    1.3835   -5.5579 C   0  0  0  0  0  0  0  0  0  0  0  0
   -3.4402    0.1559   -4.8814 C   0  0  0  0  0  0  0  0  0  0  0  0
   -2.0830   -1.4167   -4.3274 H   0  0  0  0  0  0  0  0  0  0  0  0
   -0.0975   -0.3553   -5.4835 H   0  0  0  0  0  0  0  0  0  0  0  0
   -2.6456    2.8997   -6.7384 H   0  0  0  0  0  0  0  0  0  0  0  0
   -4.5716    1.8833   -5.5750 H   0  0  0  0  0  0  0  0  0  0  0  0
   -0.2575    1.8846   -6.8761 N   0  0  0  0  0  0  0  0  0  0  0  0
    0.5704    2.3242   -7.4914 N   0  0  0  0  0  0  0  0  0  0  0  0
    2.4532   -0.1566   -6.7459 S   0  0  0  0  0  0  0  0  0  0  0  0
    4.2344    0.3128   -6.5199 C   0  0  0  0  0  0  0  0  0  0  0  0
    2.0510    0.5632   -7.9960 O   0  0  0  0  0  0  0  0  0  0  0  0
    1.7920    0.4133   -5.5361 O   0  0  0  0  0  0  0  0  0  0  0  0
    2.4439   -1.6220   -6.8370 O   0  0  0  0  0  0  0  0  0  0  0  0
    4.9687   -0.1126   -7.5563 F   0  0  0  0  0  0  0  0  0  0  0  0
    4.3593    1.6475   -6.4306 F   0  0  0  0  0  0  0  0  0  0  0  0
    4.7233   -0.2331   -5.3978 F   0  0  0  0  0  0  0  0  0  0  0  0
   -4.4165   -0.4820   -4.2208 O   0  0  0  0  0  0  0  0  0  0  0  0
   -5.7296    0.0830   -4.1763 C   0  0  0  0  0  0  0  0  0  0  0  0
   -6.3274   -0.6136   -3.5894 H   0  0  0  0  0  0  0  0  0  0  0  0
   -6.1548    0.1723   -5.1820 H   0  0  0  0  0  0  0  0  0  0  0  0
   -5.7212    1.0620   -3.6853 H   0  0  0  0  0  0  0  0  0  0  0  0
  1  7  1  0  0  0  0
  2  8  1  0  0  0  0
  2  1  2  0  0  0  0
  3  2  1  0  0  0  0
  4  3  2  0  0  0  0
  4  5  1  0  0  0  0
  5  6  2  0  0  0  0
  6  1  1  0  0  0  0
  6 21  1  0  0  0  0
  9  4  1  0  0  0  0
 10  5  1  0  0  0  0
 11  3  1  0  0  0  0
 12 11  1  0  0  0  0
 13 14  1  0  0  0  0
 13 16  1  0  0  0  0
 14 19  1  0  0  0  0
 14 20  1  0  0  0  0
 15 13  2  0  0  0  0
 17 13  2  0  0  0  0
 18 14  1  0  0  0  0
 21 22  1  0  0  0  0
 22 25  1  0  0  0  0
 22 23  1  0  0  0  0
 24 22  1  0  0  0  0
M  RAD  3  11   2  12   3  16   2
M  END
