Coordinates from ORCA-job p-CH3O-Ph-N2-X-OTf-B3LYPG-6-31G_dp-scan-d09-49-n400
 OpenBabel08281820593D

 25 24  0  0  0  0  0  0  0  0999 V2000
   -2.1028   -0.4838   -5.1093 C   0  0  0  0  0  0  0  0  0  0  0  0
   -1.0875    0.1627   -5.7827 C   0  0  0  0  0  0  0  0  0  0  0  0
   -1.3893    1.4158   -6.3642 C   0  0  0  0  0  0  0  0  0  0  0  0
   -2.6595    2.0093   -6.2726 C   0  0  0  0  0  0  0  0  0  0  0  0
   -3.6643    1.3404   -5.5968 C   0  0  0  0  0  0  0  0  0  0  0  0
   -3.3903    0.0859   -5.0098 C   0  0  0  0  0  0  0  0  0  0  0  0
   -1.9233   -1.4429   -4.6375 H   0  0  0  0  0  0  0  0  0  0  0  0
   -0.0841   -0.2625   -5.8348 H   0  0  0  0  0  0  0  0  0  0  0  0
   -2.8436    2.9759   -6.7280 H   0  0  0  0  0  0  0  0  0  0  0  0
   -4.6459    1.7904   -5.5230 H   0  0  0  0  0  0  0  0  0  0  0  0
   -0.4052    2.0966   -7.0436 N   0  0  0  0  0  0  0  0  0  0  0  0
    0.5339    2.4365   -7.5616 N   0  0  0  0  0  0  0  0  0  0  0  0
    2.4621    0.4531   -6.2030 S   0  0  0  0  0  0  0  0  0  0  0  0
    4.2040   -0.0696   -6.5776 C   0  0  0  0  0  0  0  0  0  0  0  0
    1.8277    0.5455   -7.5654 O   0  0  0  0  0  0  0  0  0  0  0  0
    2.5739    1.7564   -5.5213 O   0  0  0  0  0  0  0  0  0  0  0  0
    1.9032   -0.6608   -5.4001 O   0  0  0  0  0  0  0  0  0  0  0  0
    4.2124   -1.2348   -7.2384 F   0  0  0  0  0  0  0  0  0  0  0  0
    4.8153    0.8535   -7.3326 F   0  0  0  0  0  0  0  0  0  0  0  0
    4.8954   -0.2175   -5.4396 F   0  0  0  0  0  0  0  0  0  0  0  0
   -4.2901   -0.6397   -4.3309 O   0  0  0  0  0  0  0  0  0  0  0  0
   -5.6211   -0.1441   -4.1649 C   0  0  0  0  0  0  0  0  0  0  0  0
   -6.1432   -0.9002   -3.5793 H   0  0  0  0  0  0  0  0  0  0  0  0
   -6.1202   -0.0222   -5.1323 H   0  0  0  0  0  0  0  0  0  0  0  0
   -5.6232    0.8065   -3.6205 H   0  0  0  0  0  0  0  0  0  0  0  0
  1  6  1  0  0  0  0
  1  7  1  0  0  0  0
  2  1  2  0  0  0  0
  3  4  2  0  0  0  0
  3  2  1  0  0  0  0
  4  5  1  0  0  0  0
  5 10  1  0  0  0  0
  5  6  2  0  0  0  0
  6 21  1  0  0  0  0
  8  2  1  0  0  0  0
  9  4  1  0  0  0  0
 11  3  1  0  0  0  0
 12 11  1  0  0  0  0
 13 16  2  0  0  0  0
 13 17  1  0  0  0  0
 14 13  1  0  0  0  0
 14 20  1  0  0  0  0
 15 13  2  0  0  0  0
 18 14  1  0  0  0  0
 19 14  1  0  0  0  0
 21 22  1  0  0  0  0
 22 25  1  0  0  0  0
 22 23  1  0  0  0  0
 24 22  1  0  0  0  0
M  RAD  3  11   2  12   3  17   2
M  END
