Coordinates from ORCA-job p-CH3O-Ph-N2-X-OTf-B3LYPG-6-31G_dp-scan-d09-49-n400
 OpenBabel08281820593D

 25 24  0  0  0  0  0  0  0  0999 V2000
   -1.8077   -0.1025   -4.8041 C   0  0  0  0  0  0  0  0  0  0  0  0
   -0.8646    0.7200   -5.3880 C   0  0  0  0  0  0  0  0  0  0  0  0
   -1.3635    1.7970   -6.1568 C   0  0  0  0  0  0  0  0  0  0  0  0
   -2.7347    2.0623   -6.3401 C   0  0  0  0  0  0  0  0  0  0  0  0
   -3.6506    1.2169   -5.7463 C   0  0  0  0  0  0  0  0  0  0  0  0
   -3.1900    0.1246   -4.9726 C   0  0  0  0  0  0  0  0  0  0  0  0
   -1.4952   -0.9480   -4.2004 H   0  0  0  0  0  0  0  0  0  0  0  0
    0.2443    0.5565   -5.2543 H   0  0  0  0  0  0  0  0  0  0  0  0
   -3.0597    2.9061   -6.9394 H   0  0  0  0  0  0  0  0  0  0  0  0
   -4.7089    1.4009   -5.8812 H   0  0  0  0  0  0  0  0  0  0  0  0
   -0.4586    2.6352   -6.7569 N   0  0  0  0  0  0  0  0  0  0  0  0
    0.3717    3.2236   -7.2215 N   0  0  0  0  0  0  0  0  0  0  0  0
    2.6938    0.8345   -6.1263 S   0  0  0  0  0  0  0  0  0  0  0  0
    3.5244   -0.7045   -6.7511 C   0  0  0  0  0  0  0  0  0  0  0  0
    1.9052    1.2952   -7.3080 O   0  0  0  0  0  0  0  0  0  0  0  0
    3.7818    1.7141   -5.6883 O   0  0  0  0  0  0  0  0  0  0  0  0
    1.8028    0.3169   -5.0372 O   0  0  0  0  0  0  0  0  0  0  0  0
    2.6099   -1.5900   -7.1823 F   0  0  0  0  0  0  0  0  0  0  0  0
    4.3444   -0.4148   -7.7702 F   0  0  0  0  0  0  0  0  0  0  0  0
    4.2409   -1.2798   -5.7761 F   0  0  0  0  0  0  0  0  0  0  0  0
   -3.9992   -0.7478   -4.3573 O   0  0  0  0  0  0  0  0  0  0  0  0
   -5.4176   -0.6042   -4.4672 C   0  0  0  0  0  0  0  0  0  0  0  0
   -5.8399   -1.4267   -3.8911 H   0  0  0  0  0  0  0  0  0  0  0  0
   -5.7425   -0.6838   -5.5100 H   0  0  0  0  0  0  0  0  0  0  0  0
   -5.7520    0.3489   -4.0434 H   0  0  0  0  0  0  0  0  0  0  0  0
  1  7  1  0  0  0  0
  2  8  1  0  0  0  0
  2  1  2  0  0  0  0
  3  2  1  0  0  0  0
  4  3  2  0  0  0  0
  4  5  1  0  0  0  0
  5  6  2  0  0  0  0
  6  1  1  0  0  0  0
  6 21  1  0  0  0  0
  9  4  1  0  0  0  0
 10  5  1  0  0  0  0
 11  3  1  0  0  0  0
 12 11  1  0  0  0  0
 13 16  2  0  0  0  0
 13 17  1  0  0  0  0
 14 13  1  0  0  0  0
 14 20  1  0  0  0  0
 15 13  2  0  0  0  0
 18 14  1  0  0  0  0
 19 14  1  0  0  0  0
 22 21  1  0  0  0  0
 22 25  1  0  0  0  0
 22 23  1  0  0  0  0
 24 22  1  0  0  0  0
M  RAD  3  11   2  12   3  17   2
M  END
