Coordinates from ORCA-job p-CH3O-Ph-N2-X-OTf-B3LYPG-6-31G_dp-scan-d09-49-n400
 OpenBabel08281820593D

 25 24  0  0  0  0  0  0  0  0999 V2000
   -2.2043   -0.4899   -4.8421 C   0  0  0  0  0  0  0  0  0  0  0  0
   -1.1077    0.0497   -5.4804 C   0  0  0  0  0  0  0  0  0  0  0  0
   -1.2835    1.2740   -6.1611 C   0  0  0  0  0  0  0  0  0  0  0  0
   -2.5168    1.9503   -6.1982 C   0  0  0  0  0  0  0  0  0  0  0  0
   -3.6053    1.3903   -5.5540 C   0  0  0  0  0  0  0  0  0  0  0  0
   -3.4555    0.1628   -4.8720 C   0  0  0  0  0  0  0  0  0  0  0  0
   -2.1245   -1.4260   -4.3016 H   0  0  0  0  0  0  0  0  0  0  0  0
   -0.1136   -0.3942   -5.4521 H   0  0  0  0  0  0  0  0  0  0  0  0
   -2.6092    2.8904   -6.7303 H   0  0  0  0  0  0  0  0  0  0  0  0
   -4.5582    1.9026   -5.5809 H   0  0  0  0  0  0  0  0  0  0  0  0
   -0.2323    1.8421   -6.8430 N   0  0  0  0  0  0  0  0  0  0  0  0
    0.6080    2.2703   -7.4500 N   0  0  0  0  0  0  0  0  0  0  0  0
    2.4883   -0.2375   -6.7798 S   0  0  0  0  0  0  0  0  0  0  0  0
    4.2200    0.3832   -6.5343 C   0  0  0  0  0  0  0  0  0  0  0  0
    2.0256    0.4859   -8.0069 O   0  0  0  0  0  0  0  0  0  0  0  0
    1.7836    0.2387   -5.5534 O   0  0  0  0  0  0  0  0  0  0  0  0
    2.6111   -1.6925   -6.9197 O   0  0  0  0  0  0  0  0  0  0  0  0
    4.9889    0.0632   -7.5835 F   0  0  0  0  0  0  0  0  0  0  0  0
    4.2225    1.7207   -6.3996 F   0  0  0  0  0  0  0  0  0  0  0  0
    4.7591   -0.1529   -5.4309 F   0  0  0  0  0  0  0  0  0  0  0  0
   -4.4458   -0.4596   -4.2171 O   0  0  0  0  0  0  0  0  0  0  0  0
   -5.7515    0.1232   -4.1854 C   0  0  0  0  0  0  0  0  0  0  0  0
   -6.3638   -0.5637   -3.6021 H   0  0  0  0  0  0  0  0  0  0  0  0
   -6.1666    0.2159   -5.1950 H   0  0  0  0  0  0  0  0  0  0  0  0
   -5.7342    1.1033   -3.6967 H   0  0  0  0  0  0  0  0  0  0  0  0
  1  7  1  0  0  0  0
  2  8  1  0  0  0  0
  2  1  2  0  0  0  0
  3  2  1  0  0  0  0
  4  3  2  0  0  0  0
  4  5  1  0  0  0  0
  5  6  2  0  0  0  0
  6  1  1  0  0  0  0
  6 21  1  0  0  0  0
  9  4  1  0  0  0  0
 10  5  1  0  0  0  0
 11  3  1  0  0  0  0
 12 11  1  0  0  0  0
 13 14  1  0  0  0  0
 13 16  1  0  0  0  0
 14 19  1  0  0  0  0
 14 20  1  0  0  0  0
 15 13  2  0  0  0  0
 17 13  2  0  0  0  0
 18 14  1  0  0  0  0
 21 22  1  0  0  0  0
 22 25  1  0  0  0  0
 22 23  1  0  0  0  0
 24 22  1  0  0  0  0
M  RAD  3  11   2  12   3  16   2
M  END
