Coordinates from ORCA-job p-CH3O-Ph-N2-X-OTf-B3LYPG-6-31G_dp-scan-d09-49-n400
 OpenBabel08281820593D

 25 24  0  0  0  0  0  0  0  0999 V2000
   -2.2029   -0.4887   -4.8421 C   0  0  0  0  0  0  0  0  0  0  0  0
   -1.1068    0.0520   -5.4804 C   0  0  0  0  0  0  0  0  0  0  0  0
   -1.2839    1.2760   -6.1613 C   0  0  0  0  0  0  0  0  0  0  0  0
   -2.5179    1.9510   -6.1986 C   0  0  0  0  0  0  0  0  0  0  0  0
   -3.6058    1.3899   -5.5543 C   0  0  0  0  0  0  0  0  0  0  0  0
   -3.4548    0.1626   -4.8722 C   0  0  0  0  0  0  0  0  0  0  0  0
   -2.1221   -1.4246   -4.3015 H   0  0  0  0  0  0  0  0  0  0  0  0
   -0.1123   -0.3909   -5.4518 H   0  0  0  0  0  0  0  0  0  0  0  0
   -2.6113    2.8909   -6.7309 H   0  0  0  0  0  0  0  0  0  0  0  0
   -4.5593    1.9012   -5.5813 H   0  0  0  0  0  0  0  0  0  0  0  0
   -0.2333    1.8450   -6.8435 N   0  0  0  0  0  0  0  0  0  0  0  0
    0.6064    2.2738   -7.4507 N   0  0  0  0  0  0  0  0  0  0  0  0
    2.4864   -0.2337   -6.7779 S   0  0  0  0  0  0  0  0  0  0  0  0
    4.2212    0.3791   -6.5347 C   0  0  0  0  0  0  0  0  0  0  0  0
    2.0260    0.4898   -8.0059 O   0  0  0  0  0  0  0  0  0  0  0  0
    1.7846    0.2475   -5.5519 O   0  0  0  0  0  0  0  0  0  0  0  0
    2.6021   -1.6896   -6.9154 O   0  0  0  0  0  0  0  0  0  0  0  0
    4.9878    0.0535   -7.5839 F   0  0  0  0  0  0  0  0  0  0  0  0
    4.2303    1.7168   -6.4023 F   0  0  0  0  0  0  0  0  0  0  0  0
    4.7584   -0.1578   -5.4308 F   0  0  0  0  0  0  0  0  0  0  0  0
   -4.4445   -0.4607   -4.2173 O   0  0  0  0  0  0  0  0  0  0  0  0
   -5.7508    0.1205   -4.1859 C   0  0  0  0  0  0  0  0  0  0  0  0
   -6.3624   -0.5670   -3.6026 H   0  0  0  0  0  0  0  0  0  0  0  0
   -6.1659    0.2126   -5.1955 H   0  0  0  0  0  0  0  0  0  0  0  0
   -5.7346    1.1007   -3.6973 H   0  0  0  0  0  0  0  0  0  0  0  0
  1  7  1  0  0  0  0
  2  8  1  0  0  0  0
  2  1  2  0  0  0  0
  3  2  1  0  0  0  0
  4  3  2  0  0  0  0
  4  5  1  0  0  0  0
  5  6  2  0  0  0  0
  6  1  1  0  0  0  0
  6 21  1  0  0  0  0
  9  4  1  0  0  0  0
 10  5  1  0  0  0  0
 11  3  1  0  0  0  0
 12 11  1  0  0  0  0
 13 14  1  0  0  0  0
 13 16  1  0  0  0  0
 14 19  1  0  0  0  0
 14 20  1  0  0  0  0
 15 13  2  0  0  0  0
 17 13  2  0  0  0  0
 18 14  1  0  0  0  0
 21 22  1  0  0  0  0
 22 25  1  0  0  0  0
 22 23  1  0  0  0  0
 24 22  1  0  0  0  0
M  RAD  3  11   2  12   3  16   2
M  END
