Coordinates from ORCA-job p-CH3O-Ph-N2-X-OTf-B3LYPG-6-31G_dp-scan-d09-49-n400
 OpenBabel08281820593D

 25 24  0  0  0  0  0  0  0  0999 V2000
   -2.3548   -0.7841   -5.0168 C   0  0  0  0  0  0  0  0  0  0  0  0
   -1.2509   -0.4933   -5.7916 C   0  0  0  0  0  0  0  0  0  0  0  0
   -1.2058    0.7578   -6.4361 C   0  0  0  0  0  0  0  0  0  0  0  0
   -2.2397    1.7045   -6.3042 C   0  0  0  0  0  0  0  0  0  0  0  0
   -3.3357    1.4012   -5.5156 C   0  0  0  0  0  0  0  0  0  0  0  0
   -3.4018    0.1498   -4.8671 C   0  0  0  0  0  0  0  0  0  0  0  0
   -2.4348   -1.7344   -4.5018 H   0  0  0  0  0  0  0  0  0  0  0  0
   -0.4216   -1.1785   -5.9055 H   0  0  0  0  0  0  0  0  0  0  0  0
   -2.1721    2.6592   -6.8140 H   0  0  0  0  0  0  0  0  0  0  0  0
   -4.1288    2.1299   -5.4084 H   0  0  0  0  0  0  0  0  0  0  0  0
   -0.1508    1.1114   -7.2554 N   0  0  0  0  0  0  0  0  0  0  0  0
    0.5321    1.6103   -7.9959 N   0  0  0  0  0  0  0  0  0  0  0  0
    2.8039   -0.3996   -7.1331 S   0  0  0  0  0  0  0  0  0  0  0  0
    3.5399    0.8986   -6.0275 C   0  0  0  0  0  0  0  0  0  0  0  0
    2.4858    0.3673   -8.3751 O   0  0  0  0  0  0  0  0  0  0  0  0
    1.5668   -0.7734   -6.3856 O   0  0  0  0  0  0  0  0  0  0  0  0
    3.8405   -1.4252   -7.2599 O   0  0  0  0  0  0  0  0  0  0  0  0
    4.6400    1.4319   -6.5691 F   0  0  0  0  0  0  0  0  0  0  0  0
    2.6432    1.8947   -5.8331 F   0  0  0  0  0  0  0  0  0  0  0  0
    3.8558    0.3907   -4.8289 F   0  0  0  0  0  0  0  0  0  0  0  0
   -4.4191   -0.2428   -4.0862 O   0  0  0  0  0  0  0  0  0  0  0  0
   -5.5231    0.6389   -3.8665 C   0  0  0  0  0  0  0  0  0  0  0  0
   -6.2026    0.0982   -3.2082 H   0  0  0  0  0  0  0  0  0  0  0  0
   -6.0341    0.8738   -4.8066 H   0  0  0  0  0  0  0  0  0  0  0  0
   -5.1980    1.5635   -3.3776 H   0  0  0  0  0  0  0  0  0  0  0  0
  1  6  1  0  0  0  0
  1  7  1  0  0  0  0
  2  1  2  0  0  0  0
  3  4  2  0  0  0  0
  3  2  1  0  0  0  0
  4  5  1  0  0  0  0
  5 10  1  0  0  0  0
  5  6  2  0  0  0  0
  6 21  1  0  0  0  0
  8  2  1  0  0  0  0
  9  4  1  0  0  0  0
 11  3  1  0  0  0  0
 12 11  1  0  0  0  0
 13 16  1  0  0  0  0
 13 14  1  0  0  0  0
 14 19  1  0  0  0  0
 14 20  1  0  0  0  0
 15 13  2  0  0  0  0
 17 13  2  0  0  0  0
 18 14  1  0  0  0  0
 21 22  1  0  0  0  0
 22 25  1  0  0  0  0
 22 23  1  0  0  0  0
 24 22  1  0  0  0  0
M  RAD  3  11   2  12   3  16   2
M  END
