Coordinates from ORCA-job p-CH3O-Ph-N2-X-OTf-B3LYPG-6-31G_dp-scan-d09-49-n400
 OpenBabel08281820593D

 25 24  0  0  0  0  0  0  0  0999 V2000
   -1.7433   -0.0588   -4.7955 C   0  0  0  0  0  0  0  0  0  0  0  0
   -0.8094    0.7869   -5.3646 C   0  0  0  0  0  0  0  0  0  0  0  0
   -1.3350    1.8490   -6.1373 C   0  0  0  0  0  0  0  0  0  0  0  0
   -2.7118    2.0784   -6.3429 C   0  0  0  0  0  0  0  0  0  0  0  0
   -3.6111    1.2094   -5.7608 C   0  0  0  0  0  0  0  0  0  0  0  0
   -3.1287    0.1305   -4.9797 C   0  0  0  0  0  0  0  0  0  0  0  0
   -1.4189   -0.8990   -4.1901 H   0  0  0  0  0  0  0  0  0  0  0  0
    0.3337    0.6344   -5.2219 H   0  0  0  0  0  0  0  0  0  0  0  0
   -3.0515    2.9128   -6.9476 H   0  0  0  0  0  0  0  0  0  0  0  0
   -4.6723    1.3633   -5.9103 H   0  0  0  0  0  0  0  0  0  0  0  0
   -0.4550    2.7218   -6.7228 N   0  0  0  0  0  0  0  0  0  0  0  0
    0.3113    3.3902   -7.1853 N   0  0  0  0  0  0  0  0  0  0  0  0
    2.6723    0.8387   -6.1253 S   0  0  0  0  0  0  0  0  0  0  0  0
    3.3576   -0.7724   -6.7431 C   0  0  0  0  0  0  0  0  0  0  0  0
    1.9043    1.3630   -7.2865 O   0  0  0  0  0  0  0  0  0  0  0  0
    3.8356    1.6172   -5.6938 O   0  0  0  0  0  0  0  0  0  0  0  0
    1.7511    0.3985   -5.0174 O   0  0  0  0  0  0  0  0  0  0  0  0
    2.3627   -1.5782   -7.1529 F   0  0  0  0  0  0  0  0  0  0  0  0
    4.1842   -0.5633   -7.7762 F   0  0  0  0  0  0  0  0  0  0  0  0
    4.0353   -1.3994   -5.7726 F   0  0  0  0  0  0  0  0  0  0  0  0
   -3.9228   -0.7629   -4.3743 O   0  0  0  0  0  0  0  0  0  0  0  0
   -5.3428   -0.6578   -4.5030 C   0  0  0  0  0  0  0  0  0  0  0  0
   -5.7504   -1.4906   -3.9311 H   0  0  0  0  0  0  0  0  0  0  0  0
   -5.6521   -0.7477   -5.5498 H   0  0  0  0  0  0  0  0  0  0  0  0
   -5.7087    0.2863   -4.0853 H   0  0  0  0  0  0  0  0  0  0  0  0
  1  7  1  0  0  0  0
  2  8  1  0  0  0  0
  2  1  2  0  0  0  0
  3  2  1  0  0  0  0
  4  3  2  0  0  0  0
  4  5  1  0  0  0  0
  5  6  2  0  0  0  0
  6  1  1  0  0  0  0
  6 21  1  0  0  0  0
  9  4  1  0  0  0  0
 10  5  1  0  0  0  0
 11  3  1  0  0  0  0
 12 11  1  0  0  0  0
 13 16  2  0  0  0  0
 13 17  1  0  0  0  0
 14 13  1  0  0  0  0
 14 20  1  0  0  0  0
 15 13  2  0  0  0  0
 18 14  1  0  0  0  0
 19 14  1  0  0  0  0
 22 21  1  0  0  0  0
 22 25  1  0  0  0  0
 22 23  1  0  0  0  0
 24 22  1  0  0  0  0
M  RAD  3  11   2  12   3  17   2
M  END
