Coordinates from ORCA-job p-CH3O-Ph-N2-X-OTf-B3LYPG-6-31G_dp-scan-d09-49-n400
 OpenBabel08281820593D

 25 24  0  0  0  0  0  0  0  0999 V2000
   -1.6656    0.0050   -4.7861 C   0  0  0  0  0  0  0  0  0  0  0  0
   -0.7424    0.8826   -5.3343 C   0  0  0  0  0  0  0  0  0  0  0  0
   -1.3128    1.9189   -6.1124 C   0  0  0  0  0  0  0  0  0  0  0  0
   -2.6950    2.1005   -6.3477 C   0  0  0  0  0  0  0  0  0  0  0  0
   -3.5687    1.1979   -5.7816 C   0  0  0  0  0  0  0  0  0  0  0  0
   -3.0533    0.1384   -4.9921 C   0  0  0  0  0  0  0  0  0  0  0  0
   -1.3285   -0.8283   -4.1762 H   0  0  0  0  0  0  0  0  0  0  0  0
    0.5062    0.7411   -5.1745 H   0  0  0  0  0  0  0  0  0  0  0  0
   -3.0558    2.9219   -6.9588 H   0  0  0  0  0  0  0  0  0  0  0  0
   -4.6326    1.3080   -5.9492 H   0  0  0  0  0  0  0  0  0  0  0  0
   -0.4660    2.8329   -6.6843 N   0  0  0  0  0  0  0  0  0  0  0  0
    0.2426    3.5652   -7.1424 N   0  0  0  0  0  0  0  0  0  0  0  0
    2.6710    0.8534   -6.1380 S   0  0  0  0  0  0  0  0  0  0  0  0
    3.1264   -0.8527   -6.7113 C   0  0  0  0  0  0  0  0  0  0  0  0
    1.9314    1.4403   -7.2773 O   0  0  0  0  0  0  0  0  0  0  0  0
    3.9252    1.4837   -5.7314 O   0  0  0  0  0  0  0  0  0  0  0  0
    1.7271    0.5494   -4.9815 O   0  0  0  0  0  0  0  0  0  0  0  0
    2.0197   -1.5389   -7.0429 F   0  0  0  0  0  0  0  0  0  0  0  0
    3.9213   -0.7814   -7.7856 F   0  0  0  0  0  0  0  0  0  0  0  0
    3.7663   -1.5200   -5.7444 F   0  0  0  0  0  0  0  0  0  0  0  0
   -3.8242   -0.7873   -4.4014 O   0  0  0  0  0  0  0  0  0  0  0  0
   -5.2434   -0.7395   -4.5593 C   0  0  0  0  0  0  0  0  0  0  0  0
   -5.6296   -1.5886   -3.9963 H   0  0  0  0  0  0  0  0  0  0  0  0
   -5.5284   -0.8407   -5.6121 H   0  0  0  0  0  0  0  0  0  0  0  0
   -5.6568    0.1885   -4.1493 H   0  0  0  0  0  0  0  0  0  0  0  0
  1  7  1  0  0  0  0
  2  1  2  0  0  0  0
  3  2  1  0  0  0  0
  4  3  2  0  0  0  0
  4  5  1  0  0  0  0
  5  6  2  0  0  0  0
  6  1  1  0  0  0  0
  6 21  1  0  0  0  0
  8 17  1  0  0  0  0
  9  4  1  0  0  0  0
 10  5  1  0  0  0  0
 11  3  1  0  0  0  0
 12 11  1  0  0  0  0
 13 16  2  0  0  0  0
 13 17  1  0  0  0  0
 14 13  1  0  0  0  0
 14 20  1  0  0  0  0
 15 13  2  0  0  0  0
 18 14  1  0  0  0  0
 19 14  1  0  0  0  0
 22 21  1  0  0  0  0
 22 25  1  0  0  0  0
 22 23  1  0  0  0  0
 24 22  1  0  0  0  0
M  RAD  3   2   2  11   2  12   3
M  END
