Coordinates from ORCA-job p-CH3O-Ph-N2-X-OTf-B3LYPG-6-31G_dp-scan-d09-49-n400
 OpenBabel08281820593D

 25 24  0  0  0  0  0  0  0  0999 V2000
   -2.3149   -0.6378   -4.9267 C   0  0  0  0  0  0  0  0  0  0  0  0
   -1.1880   -0.2133   -5.5990 C   0  0  0  0  0  0  0  0  0  0  0  0
   -1.2361    1.0476   -6.2305 C   0  0  0  0  0  0  0  0  0  0  0  0
   -2.3769    1.8709   -6.1885 C   0  0  0  0  0  0  0  0  0  0  0  0
   -3.4985    1.4261   -5.5118 C   0  0  0  0  0  0  0  0  0  0  0  0
   -3.4748    0.1651   -4.8766 C   0  0  0  0  0  0  0  0  0  0  0  0
   -2.3296   -1.5960   -4.4205 H   0  0  0  0  0  0  0  0  0  0  0  0
   -0.2624   -0.7813   -5.6398 H   0  0  0  0  0  0  0  0  0  0  0  0
   -2.3735    2.8349   -6.6847 H   0  0  0  0  0  0  0  0  0  0  0  0
   -4.3803    2.0526   -5.4782 H   0  0  0  0  0  0  0  0  0  0  0  0
   -0.1500    1.5127   -6.9353 N   0  0  0  0  0  0  0  0  0  0  0  0
    0.7047    1.9008   -7.5517 N   0  0  0  0  0  0  0  0  0  0  0  0
    2.6761   -0.4936   -6.9258 S   0  0  0  0  0  0  0  0  0  0  0  0
    3.9530    0.7404   -6.3840 C   0  0  0  0  0  0  0  0  0  0  0  0
    2.1022    0.1425   -8.1552 O   0  0  0  0  0  0  0  0  0  0  0  0
    1.7135   -0.4734   -5.7868 O   0  0  0  0  0  0  0  0  0  0  0  0
    3.4147   -1.7388   -7.1477 O   0  0  0  0  0  0  0  0  0  0  0  0
    4.8961    0.8987   -7.3203 F   0  0  0  0  0  0  0  0  0  0  0  0
    3.3712    1.9409   -6.1678 F   0  0  0  0  0  0  0  0  0  0  0  0
    4.5417    0.3533   -5.2451 F   0  0  0  0  0  0  0  0  0  0  0  0
   -4.5070   -0.3547   -4.1971 O   0  0  0  0  0  0  0  0  0  0  0  0
   -5.7247    0.3863   -4.0807 C   0  0  0  0  0  0  0  0  0  0  0  0
   -6.3953   -0.2441   -3.4975 H   0  0  0  0  0  0  0  0  0  0  0  0
   -6.1658    0.5777   -5.0648 H   0  0  0  0  0  0  0  0  0  0  0  0
   -5.5613    1.3326   -3.5540 H   0  0  0  0  0  0  0  0  0  0  0  0
  1  6  1  0  0  0  0
  1  7  1  0  0  0  0
  2  1  2  0  0  0  0
  3  4  2  0  0  0  0
  3  2  1  0  0  0  0
  4  5  1  0  0  0  0
  5 10  1  0  0  0  0
  5  6  2  0  0  0  0
  6 21  1  0  0  0  0
  8  2  1  0  0  0  0
  9  4  1  0  0  0  0
 11  3  1  0  0  0  0
 12 11  1  0  0  0  0
 13 14  1  0  0  0  0
 13 16  1  0  0  0  0
 14 19  1  0  0  0  0
 14 20  1  0  0  0  0
 15 13  2  0  0  0  0
 17 13  2  0  0  0  0
 18 14  1  0  0  0  0
 21 22  1  0  0  0  0
 22 25  1  0  0  0  0
 22 23  1  0  0  0  0
 24 22  1  0  0  0  0
M  RAD  3  11   2  12   3  16   2
M  END
