Coordinates from ORCA-job p-CH3O-Ph-N2-X-OTf-B3LYPG-6-31G_dp-scan-d09-49-n400
 OpenBabel08281820593D

 25 24  0  0  0  0  0  0  0  0999 V2000
   -2.2135   -0.5857   -5.0403 C   0  0  0  0  0  0  0  0  0  0  0  0
   -1.1459   -0.0548   -5.7321 C   0  0  0  0  0  0  0  0  0  0  0  0
   -1.3150    1.2146   -6.3278 C   0  0  0  0  0  0  0  0  0  0  0  0
   -2.5163    1.9402   -6.2264 C   0  0  0  0  0  0  0  0  0  0  0  0
   -3.5741    1.3937   -5.5219 C   0  0  0  0  0  0  0  0  0  0  0  0
   -3.4294    0.1224   -4.9257 C   0  0  0  0  0  0  0  0  0  0  0  0
   -2.1349   -1.5552   -4.5628 H   0  0  0  0  0  0  0  0  0  0  0  0
   -0.1844   -0.5519   -5.7936 H   0  0  0  0  0  0  0  0  0  0  0  0
   -2.6067    2.9125   -6.6973 H   0  0  0  0  0  0  0  0  0  0  0  0
   -4.4991    1.9492   -5.4381 H   0  0  0  0  0  0  0  0  0  0  0  0
   -0.3060    1.7790   -7.0726 N   0  0  0  0  0  0  0  0  0  0  0  0
    0.4775    2.2304   -7.7357 N   0  0  0  0  0  0  0  0  0  0  0  0
    2.4447   -0.0704   -6.7318 S   0  0  0  0  0  0  0  0  0  0  0  0
    4.2087    0.3651   -6.3535 C   0  0  0  0  0  0  0  0  0  0  0  0
    2.1753    0.6159   -8.0347 O   0  0  0  0  0  0  0  0  0  0  0  0
    1.6829    0.5439   -5.6073 O   0  0  0  0  0  0  0  0  0  0  0  0
    2.4092   -1.5393   -6.7793 O   0  0  0  0  0  0  0  0  0  0  0  0
    5.0246   -0.1084   -7.3046 F   0  0  0  0  0  0  0  0  0  0  0  0
    4.3597    1.6979   -6.2885 F   0  0  0  0  0  0  0  0  0  0  0  0
    4.5754   -0.1594   -5.1757 F   0  0  0  0  0  0  0  0  0  0  0  0
   -4.3912   -0.4952   -4.2260 O   0  0  0  0  0  0  0  0  0  0  0  0
   -5.6571    0.1446   -4.0426 C   0  0  0  0  0  0  0  0  0  0  0  0
   -6.2504   -0.5479   -3.4462 H   0  0  0  0  0  0  0  0  0  0  0  0
   -6.1539    0.3183   -5.0033 H   0  0  0  0  0  0  0  0  0  0  0  0
   -5.5458    1.0909   -3.5023 H   0  0  0  0  0  0  0  0  0  0  0  0
  1  6  1  0  0  0  0
  1  7  1  0  0  0  0
  2  1  2  0  0  0  0
  3  4  2  0  0  0  0
  3  2  1  0  0  0  0
  4  5  1  0  0  0  0
  5 10  1  0  0  0  0
  5  6  2  0  0  0  0
  6 21  1  0  0  0  0
  8  2  1  0  0  0  0
  9  4  1  0  0  0  0
 11  3  1  0  0  0  0
 12 11  1  0  0  0  0
 13 14  1  0  0  0  0
 13 16  1  0  0  0  0
 14 19  1  0  0  0  0
 14 20  1  0  0  0  0
 15 13  2  0  0  0  0
 17 13  2  0  0  0  0
 18 14  1  0  0  0  0
 21 22  1  0  0  0  0
 22 25  1  0  0  0  0
 22 23  1  0  0  0  0
 24 22  1  0  0  0  0
M  RAD  3  11   2  12   3  16   2
M  END
