Coordinates from ORCA-job p-CH3O-Ph-N2-X-OTf-B3LYPG-6-31G_dp-scan-d09-49-n400
 OpenBabel08281820593D

 25 24  0  0  0  0  0  0  0  0999 V2000
   -2.2999   -0.6153   -4.9193 C   0  0  0  0  0  0  0  0  0  0  0  0
   -1.1732   -0.1701   -5.5784 C   0  0  0  0  0  0  0  0  0  0  0  0
   -1.2378    1.0910   -6.2088 C   0  0  0  0  0  0  0  0  0  0  0  0
   -2.3928    1.8942   -6.1785 C   0  0  0  0  0  0  0  0  0  0  0  0
   -3.5140    1.4279   -5.5157 C   0  0  0  0  0  0  0  0  0  0  0  0
   -3.4745    0.1667   -4.8817 C   0  0  0  0  0  0  0  0  0  0  0  0
   -2.3030   -1.5739   -4.4136 H   0  0  0  0  0  0  0  0  0  0  0  0
   -0.2348   -0.7195   -5.6073 H   0  0  0  0  0  0  0  0  0  0  0  0
   -2.4009    2.8589   -6.6733 H   0  0  0  0  0  0  0  0  0  0  0  0
   -4.4074    2.0382   -5.4913 H   0  0  0  0  0  0  0  0  0  0  0  0
   -0.1499    1.5739   -6.8980 N   0  0  0  0  0  0  0  0  0  0  0  0
    0.7233    1.9444   -7.4990 N   0  0  0  0  0  0  0  0  0  0  0  0
    2.6470   -0.4934   -6.8866 S   0  0  0  0  0  0  0  0  0  0  0  0
    3.9877    0.7063   -6.4285 C   0  0  0  0  0  0  0  0  0  0  0  0
    2.0448    0.1335   -8.1078 O   0  0  0  0  0  0  0  0  0  0  0  0
    1.7336   -0.4135   -5.7108 O   0  0  0  0  0  0  0  0  0  0  0  0
    3.3297   -1.7701   -7.1083 O   0  0  0  0  0  0  0  0  0  0  0  0
    4.8958    0.8077   -7.4064 F   0  0  0  0  0  0  0  0  0  0  0  0
    3.4581    1.9312   -6.2191 F   0  0  0  0  0  0  0  0  0  0  0  0
    4.6094    0.3246   -5.3054 F   0  0  0  0  0  0  0  0  0  0  0  0
   -4.5045   -0.3722   -4.2137 O   0  0  0  0  0  0  0  0  0  0  0  0
   -5.7361    0.3473   -4.1088 C   0  0  0  0  0  0  0  0  0  0  0  0
   -6.4011   -0.2949   -3.5322 H   0  0  0  0  0  0  0  0  0  0  0  0
   -6.1711    0.5313   -5.0971 H   0  0  0  0  0  0  0  0  0  0  0  0
   -5.5944    1.2962   -3.5804 H   0  0  0  0  0  0  0  0  0  0  0  0
  1  6  1  0  0  0  0
  1  7  1  0  0  0  0
  2  1  2  0  0  0  0
  3  4  2  0  0  0  0
  3  2  1  0  0  0  0
  4  5  1  0  0  0  0
  5 10  1  0  0  0  0
  5  6  2  0  0  0  0
  6 21  1  0  0  0  0
  8  2  1  0  0  0  0
  9  4  1  0  0  0  0
 11  3  1  0  0  0  0
 12 11  1  0  0  0  0
 13 14  1  0  0  0  0
 13 16  1  0  0  0  0
 14 19  1  0  0  0  0
 14 20  1  0  0  0  0
 15 13  2  0  0  0  0
 17 13  2  0  0  0  0
 18 14  1  0  0  0  0
 21 22  1  0  0  0  0
 22 25  1  0  0  0  0
 22 23  1  0  0  0  0
 24 22  1  0  0  0  0
M  RAD  3  11   2  12   3  16   2
M  END
