Coordinates from ORCA-job p-CH3O-Ph-N2-X-OTf-B3LYPG-6-31G_dp-scan-d09-49-n400
 OpenBabel08281820593D

 25 24  0  0  0  0  0  0  0  0999 V2000
   -2.2530   -0.5504   -4.8892 C   0  0  0  0  0  0  0  0  0  0  0  0
   -1.1299   -0.0454   -5.5100 C   0  0  0  0  0  0  0  0  0  0  0  0
   -1.2412    1.2137   -6.1391 C   0  0  0  0  0  0  0  0  0  0  0  0
   -2.4347    1.9577   -6.1428 C   0  0  0  0  0  0  0  0  0  0  0  0
   -3.5517    1.4299   -5.5201 C   0  0  0  0  0  0  0  0  0  0  0  0
   -3.4675    0.1690   -4.8898 C   0  0  0  0  0  0  0  0  0  0  0  0
   -2.2229   -1.5098   -4.3860 H   0  0  0  0  0  0  0  0  0  0  0  0
   -0.1611   -0.5432   -5.5049 H   0  0  0  0  0  0  0  0  0  0  0  0
   -2.4759    2.9232   -6.6342 H   0  0  0  0  0  0  0  0  0  0  0  0
   -4.4760    1.9928   -5.5231 H   0  0  0  0  0  0  0  0  0  0  0  0
   -0.1537    1.7468   -6.7902 N   0  0  0  0  0  0  0  0  0  0  0  0
    0.7532    2.0878   -7.3576 N   0  0  0  0  0  0  0  0  0  0  0  0
    2.5550   -0.4465   -6.7714 S   0  0  0  0  0  0  0  0  0  0  0  0
    4.0862    0.5814   -6.5631 C   0  0  0  0  0  0  0  0  0  0  0  0
    1.9006    0.1677   -7.9739 O   0  0  0  0  0  0  0  0  0  0  0  0
    1.7973   -0.1596   -5.5198 O   0  0  0  0  0  0  0  0  0  0  0  0
    3.0262   -1.8219   -6.9531 O   0  0  0  0  0  0  0  0  0  0  0  0
    4.8846    0.4710   -7.6319 F   0  0  0  0  0  0  0  0  0  0  0  0
    3.7532    1.8798   -6.4183 F   0  0  0  0  0  0  0  0  0  0  0  0
    4.7715    0.2012   -5.4768 F   0  0  0  0  0  0  0  0  0  0  0  0
   -4.4899   -0.4266   -4.2592 O   0  0  0  0  0  0  0  0  0  0  0  0
   -5.7621    0.2237   -4.1992 C   0  0  0  0  0  0  0  0  0  0  0  0
   -6.4112   -0.4551   -3.6468 H   0  0  0  0  0  0  0  0  0  0  0  0
   -6.1705    0.3849   -5.2027 H   0  0  0  0  0  0  0  0  0  0  0  0
   -5.6923    1.1782   -3.6666 H   0  0  0  0  0  0  0  0  0  0  0  0
  1  7  1  0  0  0  0
  2  8  1  0  0  0  0
  2  1  2  0  0  0  0
  3  2  1  0  0  0  0
  4  3  2  0  0  0  0
  4  5  1  0  0  0  0
  5  6  2  0  0  0  0
  6  1  1  0  0  0  0
  6 21  1  0  0  0  0
  9  4  1  0  0  0  0
 10  5  1  0  0  0  0
 11  3  1  0  0  0  0
 12 11  1  0  0  0  0
 13 14  1  0  0  0  0
 13 16  1  0  0  0  0
 14 19  1  0  0  0  0
 14 20  1  0  0  0  0
 15 13  2  0  0  0  0
 17 13  2  0  0  0  0
 18 14  1  0  0  0  0
 21 22  1  0  0  0  0
 22 25  1  0  0  0  0
 22 23  1  0  0  0  0
 24 22  1  0  0  0  0
M  RAD  3  11   2  12   3  16   2
M  END
