Coordinates from ORCA-job p-CH3O-Ph-N2-X-OTf-B3LYPG-6-31G_dp-scan-d09-49-n400
 OpenBabel08281820593D

 25 24  0  0  0  0  0  0  0  0999 V2000
   -1.7332   -0.0522   -4.7952 C   0  0  0  0  0  0  0  0  0  0  0  0
   -0.8002    0.7970   -5.3619 C   0  0  0  0  0  0  0  0  0  0  0  0
   -1.3310    1.8569   -6.1344 C   0  0  0  0  0  0  0  0  0  0  0  0
   -2.7086    2.0813   -6.3429 C   0  0  0  0  0  0  0  0  0  0  0  0
   -3.6051    1.2086   -5.7626 C   0  0  0  0  0  0  0  0  0  0  0  0
   -3.1189    0.1313   -4.9811 C   0  0  0  0  0  0  0  0  0  0  0  0
   -1.4073   -0.8921   -4.1900 H   0  0  0  0  0  0  0  0  0  0  0  0
    0.3530    0.6447   -5.2183 H   0  0  0  0  0  0  0  0  0  0  0  0
   -3.0507    2.9146   -6.9478 H   0  0  0  0  0  0  0  0  0  0  0  0
   -4.6667    1.3580   -5.9136 H   0  0  0  0  0  0  0  0  0  0  0  0
   -0.4555    2.7353   -6.7181 N   0  0  0  0  0  0  0  0  0  0  0  0
    0.2999    3.4159   -7.1807 N   0  0  0  0  0  0  0  0  0  0  0  0
    2.6684    0.8391   -6.1268 S   0  0  0  0  0  0  0  0  0  0  0  0
    3.3318   -0.7827   -6.7403 C   0  0  0  0  0  0  0  0  0  0  0  0
    1.9060    1.3723   -7.2862 O   0  0  0  0  0  0  0  0  0  0  0  0
    3.8412    1.6016   -5.6934 O   0  0  0  0  0  0  0  0  0  0  0  0
    1.7406    0.4116   -5.0170 O   0  0  0  0  0  0  0  0  0  0  0  0
    2.3257   -1.5761   -7.1470 F   0  0  0  0  0  0  0  0  0  0  0  0
    4.1599   -0.5868   -7.7746 F   0  0  0  0  0  0  0  0  0  0  0  0
    4.0019   -1.4157   -5.7687 F   0  0  0  0  0  0  0  0  0  0  0  0
   -3.9106   -0.7655   -4.3772 O   0  0  0  0  0  0  0  0  0  0  0  0
   -5.3307   -0.6661   -4.5083 C   0  0  0  0  0  0  0  0  0  0  0  0
   -5.7361   -1.5006   -3.9373 H   0  0  0  0  0  0  0  0  0  0  0  0
   -5.6380   -0.7570   -5.5556 H   0  0  0  0  0  0  0  0  0  0  0  0
   -5.7012    0.2765   -4.0910 H   0  0  0  0  0  0  0  0  0  0  0  0
  1  7  1  0  0  0  0
  2  8  1  0  0  0  0
  2  1  2  0  0  0  0
  3  2  1  0  0  0  0
  4  3  2  0  0  0  0
  4  5  1  0  0  0  0
  5  6  2  0  0  0  0
  6  1  1  0  0  0  0
  6 21  1  0  0  0  0
  9  4  1  0  0  0  0
 10  5  1  0  0  0  0
 11  3  1  0  0  0  0
 12 11  1  0  0  0  0
 13 16  2  0  0  0  0
 13 17  1  0  0  0  0
 14 13  1  0  0  0  0
 14 20  1  0  0  0  0
 15 13  2  0  0  0  0
 18 14  1  0  0  0  0
 19 14  1  0  0  0  0
 22 21  1  0  0  0  0
 22 25  1  0  0  0  0
 22 23  1  0  0  0  0
 24 22  1  0  0  0  0
M  RAD  3  11   2  12   3  17   2
M  END
