Coordinates from ORCA-job p-CH3O-Ph-N2-X-OTf-B3LYPG-6-31G_dp-scan-d09-49-n400
 OpenBabel08281820593D

 25 24  0  0  0  0  0  0  0  0999 V2000
   -2.3375   -0.7337   -4.9622 C   0  0  0  0  0  0  0  0  0  0  0  0
   -1.2296   -0.4106   -5.7181 C   0  0  0  0  0  0  0  0  0  0  0  0
   -1.2234    0.8303   -6.3847 C   0  0  0  0  0  0  0  0  0  0  0  0
   -2.2995    1.7343   -6.2962 C   0  0  0  0  0  0  0  0  0  0  0  0
   -3.4006    1.3969   -5.5292 C   0  0  0  0  0  0  0  0  0  0  0  0
   -3.4275    0.1563   -4.8568 C   0  0  0  0  0  0  0  0  0  0  0  0
   -2.3890   -1.6763   -4.4297 H   0  0  0  0  0  0  0  0  0  0  0  0
   -0.3638   -1.0554   -5.8042 H   0  0  0  0  0  0  0  0  0  0  0  0
   -2.2608    2.6813   -6.8231 H   0  0  0  0  0  0  0  0  0  0  0  0
   -4.2282    2.0907   -5.4567 H   0  0  0  0  0  0  0  0  0  0  0  0
   -0.1630    1.2113   -7.1828 N   0  0  0  0  0  0  0  0  0  0  0  0
    0.5460    1.7064   -7.9005 N   0  0  0  0  0  0  0  0  0  0  0  0
    2.7702   -0.4052   -7.1166 S   0  0  0  0  0  0  0  0  0  0  0  0
    3.6962    0.8404   -6.0978 C   0  0  0  0  0  0  0  0  0  0  0  0
    2.4188    0.3674   -8.3463 O   0  0  0  0  0  0  0  0  0  0  0  0
    1.5696   -0.6696   -6.2698 O   0  0  0  0  0  0  0  0  0  0  0  0
    3.7035   -1.5172   -7.3015 O   0  0  0  0  0  0  0  0  0  0  0  0
    4.8007    1.2543   -6.7285 F   0  0  0  0  0  0  0  0  0  0  0  0
    2.9140    1.9191   -5.8684 F   0  0  0  0  0  0  0  0  0  0  0  0
    4.0483    0.3260   -4.9118 F   0  0  0  0  0  0  0  0  0  0  0  0
   -4.4455   -0.2650   -4.0921 O   0  0  0  0  0  0  0  0  0  0  0  0
   -5.5920    0.5712   -3.9168 C   0  0  0  0  0  0  0  0  0  0  0  0
   -6.2625    0.0145   -3.2626 H   0  0  0  0  0  0  0  0  0  0  0  0
   -6.0904    0.7636   -4.8732 H   0  0  0  0  0  0  0  0  0  0  0  0
   -5.3197    1.5192   -3.4406 H   0  0  0  0  0  0  0  0  0  0  0  0
  1  6  1  0  0  0  0
  1  7  1  0  0  0  0
  2  1  2  0  0  0  0
  3  4  2  0  0  0  0
  3  2  1  0  0  0  0
  4  5  1  0  0  0  0
  5 10  1  0  0  0  0
  5  6  2  0  0  0  0
  6 21  1  0  0  0  0
  8  2  1  0  0  0  0
  9  4  1  0  0  0  0
 11  3  1  0  0  0  0
 12 11  1  0  0  0  0
 13 16  1  0  0  0  0
 13 14  1  0  0  0  0
 14 19  1  0  0  0  0
 14 20  1  0  0  0  0
 15 13  2  0  0  0  0
 17 13  2  0  0  0  0
 18 14  1  0  0  0  0
 21 22  1  0  0  0  0
 22 25  1  0  0  0  0
 22 23  1  0  0  0  0
 24 22  1  0  0  0  0
M  RAD  3  11   2  12   3  16   2
M  END
