Coordinates from ORCA-job p-CH3O-Ph-N2-X-OTf-B3LYPG-6-31G_dp-scan-d09-49-n400
 OpenBabel08281820593D

 25 24  0  0  0  0  0  0  0  0999 V2000
   -2.2633   -0.5609   -4.8895 C   0  0  0  0  0  0  0  0  0  0  0  0
   -1.1376   -0.0678   -5.5150 C   0  0  0  0  0  0  0  0  0  0  0  0
   -1.2381    1.1918   -6.1449 C   0  0  0  0  0  0  0  0  0  0  0  0
   -2.4240    1.9479   -6.1446 C   0  0  0  0  0  0  0  0  0  0  0  0
   -3.5440    1.4321   -5.5171 C   0  0  0  0  0  0  0  0  0  0  0  0
   -3.4705    0.1708   -4.8864 C   0  0  0  0  0  0  0  0  0  0  0  0
   -2.2412   -1.5203   -4.3859 H   0  0  0  0  0  0  0  0  0  0  0  0
   -0.1749   -0.5767   -5.5152 H   0  0  0  0  0  0  0  0  0  0  0  0
   -2.4572    2.9135   -6.6364 H   0  0  0  0  0  0  0  0  0  0  0  0
   -4.4625    2.0045   -5.5172 H   0  0  0  0  0  0  0  0  0  0  0  0
   -0.1482    1.7136   -6.8009 N   0  0  0  0  0  0  0  0  0  0  0  0
    0.7566    2.0537   -7.3725 N   0  0  0  0  0  0  0  0  0  0  0  0
    2.5767   -0.4688   -6.7939 S   0  0  0  0  0  0  0  0  0  0  0  0
    4.0650    0.6125   -6.5456 C   0  0  0  0  0  0  0  0  0  0  0  0
    1.9170    0.1437   -7.9943 O   0  0  0  0  0  0  0  0  0  0  0  0
    1.7925   -0.2328   -5.5481 O   0  0  0  0  0  0  0  0  0  0  0  0
    3.1054   -1.8204   -6.9945 O   0  0  0  0  0  0  0  0  0  0  0  0
    4.8815    0.5519   -7.6046 F   0  0  0  0  0  0  0  0  0  0  0  0
    3.6811    1.8954   -6.3830 F   0  0  0  0  0  0  0  0  0  0  0  0
    4.7496    0.2400   -5.4562 F   0  0  0  0  0  0  0  0  0  0  0  0
   -4.4968   -0.4142   -4.2521 O   0  0  0  0  0  0  0  0  0  0  0  0
   -5.7625    0.2486   -4.1890 C   0  0  0  0  0  0  0  0  0  0  0  0
   -6.4169   -0.4241   -3.6356 H   0  0  0  0  0  0  0  0  0  0  0  0
   -6.1714    0.4144   -5.1915 H   0  0  0  0  0  0  0  0  0  0  0  0
   -5.6821    1.2021   -3.6560 H   0  0  0  0  0  0  0  0  0  0  0  0
  1  6  1  0  0  0  0
  1  7  1  0  0  0  0
  2  1  2  0  0  0  0
  3  4  2  0  0  0  0
  3  2  1  0  0  0  0
  4  5  1  0  0  0  0
  5  6  2  0  0  0  0
  6 21  1  0  0  0  0
  8  2  1  0  0  0  0
  9  4  1  0  0  0  0
 10  5  1  0  0  0  0
 11  3  1  0  0  0  0
 12 11  1  0  0  0  0
 13 14  1  0  0  0  0
 13 16  1  0  0  0  0
 14 19  1  0  0  0  0
 14 20  1  0  0  0  0
 15 13  2  0  0  0  0
 17 13  2  0  0  0  0
 18 14  1  0  0  0  0
 21 22  1  0  0  0  0
 22 25  1  0  0  0  0
 22 23  1  0  0  0  0
 24 22  1  0  0  0  0
M  RAD  3  11   2  12   3  16   2
M  END
