Coordinates from ORCA-job p-CH3O-Ph-N2-X-OTf-B3LYPG-6-31G_dp-scan-d09-49-n400
 OpenBabel08281820593D

 25 24  0  0  0  0  0  0  0  0999 V2000
   -1.8638   -0.1515   -4.8239 C   0  0  0  0  0  0  0  0  0  0  0  0
   -0.9079    0.6464   -5.4196 C   0  0  0  0  0  0  0  0  0  0  0  0
   -1.3822    1.7433   -6.1753 C   0  0  0  0  0  0  0  0  0  0  0  0
   -2.7468    2.0504   -6.3323 C   0  0  0  0  0  0  0  0  0  0  0  0
   -3.6794    1.2294   -5.7288 C   0  0  0  0  0  0  0  0  0  0  0  0
   -3.2412    0.1189   -4.9694 C   0  0  0  0  0  0  0  0  0  0  0  0
   -1.5667   -1.0080   -4.2285 H   0  0  0  0  0  0  0  0  0  0  0  0
    0.1862    0.4561   -5.2999 H   0  0  0  0  0  0  0  0  0  0  0  0
   -3.0553    2.9079   -6.9206 H   0  0  0  0  0  0  0  0  0  0  0  0
   -4.7334    1.4475   -5.8449 H   0  0  0  0  0  0  0  0  0  0  0  0
   -0.4600    2.5558   -6.7868 N   0  0  0  0  0  0  0  0  0  0  0  0
    0.4041    3.0920   -7.2566 N   0  0  0  0  0  0  0  0  0  0  0  0
    2.6900    0.8114   -6.1342 S   0  0  0  0  0  0  0  0  0  0  0  0
    3.6798   -0.6338   -6.7519 C   0  0  0  0  0  0  0  0  0  0  0  0
    1.8956    1.2074   -7.3397 O   0  0  0  0  0  0  0  0  0  0  0  0
    3.6777    1.7905   -5.6678 O   0  0  0  0  0  0  0  0  0  0  0  0
    1.8241    0.2067   -5.0754 O   0  0  0  0  0  0  0  0  0  0  0  0
    2.8669   -1.6027   -7.2044 F   0  0  0  0  0  0  0  0  0  0  0  0
    4.4862   -0.2566   -7.7530 F   0  0  0  0  0  0  0  0  0  0  0  0
    4.4317   -1.1401   -5.7651 F   0  0  0  0  0  0  0  0  0  0  0  0
   -4.0664   -0.7322   -4.3454 O   0  0  0  0  0  0  0  0  0  0  0  0
   -5.4812   -0.5435   -4.4305 C   0  0  0  0  0  0  0  0  0  0  0  0
   -5.9196   -1.3554   -3.8515 H   0  0  0  0  0  0  0  0  0  0  0  0
   -5.8258   -0.6070   -5.4681 H   0  0  0  0  0  0  0  0  0  0  0  0
   -5.7782    0.4173   -3.9964 H   0  0  0  0  0  0  0  0  0  0  0  0
  1  7  1  0  0  0  0
  2  8  1  0  0  0  0
  2  1  2  0  0  0  0
  3  2  1  0  0  0  0
  4  3  2  0  0  0  0
  4  5  1  0  0  0  0
  5  6  2  0  0  0  0
  6  1  1  0  0  0  0
  6 21  1  0  0  0  0
  9  4  1  0  0  0  0
 10  5  1  0  0  0  0
 11  3  1  0  0  0  0
 12 11  1  0  0  0  0
 13 16  2  0  0  0  0
 13 17  1  0  0  0  0
 14 13  1  0  0  0  0
 14 20  1  0  0  0  0
 15 13  2  0  0  0  0
 18 14  1  0  0  0  0
 19 14  1  0  0  0  0
 22 21  1  0  0  0  0
 22 25  1  0  0  0  0
 22 23  1  0  0  0  0
 24 22  1  0  0  0  0
M  RAD  3  11   2  12   3  17   2
M  END
