Coordinates from ORCA-job p-CH3O-Ph-N2-X-OTf-B3LYPG-6-31G_dp-scan-d09-49-n400
 OpenBabel08281820593D

 25 24  0  0  0  0  0  0  0  0999 V2000
   -2.0337   -0.3561   -4.9634 C   0  0  0  0  0  0  0  0  0  0  0  0
   -1.0305    0.3489   -5.5953 C   0  0  0  0  0  0  0  0  0  0  0  0
   -1.3995    1.5411   -6.2601 C   0  0  0  0  0  0  0  0  0  0  0  0
   -2.7192    2.0232   -6.2867 C   0  0  0  0  0  0  0  0  0  0  0  0
   -3.7091    1.2952   -5.6517 C   0  0  0  0  0  0  0  0  0  0  0  0
   -3.3705    0.0967   -4.9855 C   0  0  0  0  0  0  0  0  0  0  0  0
   -1.8074   -1.2737   -4.4323 H   0  0  0  0  0  0  0  0  0  0  0  0
    0.0121    0.0179   -5.5563 H   0  0  0  0  0  0  0  0  0  0  0  0
   -2.9527    2.9477   -6.8029 H   0  0  0  0  0  0  0  0  0  0  0  0
   -4.7295    1.6556   -5.6709 H   0  0  0  0  0  0  0  0  0  0  0  0
   -0.4294    2.2724   -6.9064 N   0  0  0  0  0  0  0  0  0  0  0  0
    0.5102    2.6517   -7.3955 N   0  0  0  0  0  0  0  0  0  0  0  0
    2.5902    0.6297   -6.1533 S   0  0  0  0  0  0  0  0  0  0  0  0
    4.0963   -0.3075   -6.7047 C   0  0  0  0  0  0  0  0  0  0  0  0
    1.7994    0.7648   -7.4285 O   0  0  0  0  0  0  0  0  0  0  0  0
    3.0895    1.9047   -5.6162 O   0  0  0  0  0  0  0  0  0  0  0  0
    1.9265   -0.2803   -5.1852 O   0  0  0  0  0  0  0  0  0  0  0  0
    3.7470   -1.4886   -7.2340 F   0  0  0  0  0  0  0  0  0  0  0  0
    4.7688    0.3916   -7.6287 F   0  0  0  0  0  0  0  0  0  0  0  0
    4.9076   -0.5304   -5.6622 F   0  0  0  0  0  0  0  0  0  0  0  0
   -4.2520   -0.6779   -4.3377 O   0  0  0  0  0  0  0  0  0  0  0  0
   -5.6306   -0.3011   -4.2956 C   0  0  0  0  0  0  0  0  0  0  0  0
   -6.1287   -1.0791   -3.7181 H   0  0  0  0  0  0  0  0  0  0  0  0
   -6.0601   -0.2618   -5.3026 H   0  0  0  0  0  0  0  0  0  0  0  0
   -5.7603    0.6653   -3.7962 H   0  0  0  0  0  0  0  0  0  0  0  0
  1  7  1  0  0  0  0
  2  8  1  0  0  0  0
  2  1  2  0  0  0  0
  3  2  1  0  0  0  0
  4  3  2  0  0  0  0
  4  5  1  0  0  0  0
  5  6  2  0  0  0  0
  6  1  1  0  0  0  0
  6 21  1  0  0  0  0
  9  4  1  0  0  0  0
 10  5  1  0  0  0  0
 11  3  1  0  0  0  0
 12 11  1  0  0  0  0
 13 16  2  0  0  0  0
 13 17  1  0  0  0  0
 14 13  1  0  0  0  0
 14 20  1  0  0  0  0
 15 13  2  0  0  0  0
 18 14  1  0  0  0  0
 19 14  1  0  0  0  0
 21 22  1  0  0  0  0
 22 25  1  0  0  0  0
 22 23  1  0  0  0  0
 24 22  1  0  0  0  0
M  RAD  3  11   2  12   3  17   2
M  END
