Coordinates from ORCA-job p-CH3O-Ph-N2-X-OTf-B3LYPG-6-31G_dp-scan-d09-49-n400
 OpenBabel08281820593D

 25 24  0  0  0  0  0  0  0  0999 V2000
   -2.2089   -0.4943   -4.8429 C   0  0  0  0  0  0  0  0  0  0  0  0
   -1.1106    0.0418   -5.4814 C   0  0  0  0  0  0  0  0  0  0  0  0
   -1.2823    1.2673   -6.1610 C   0  0  0  0  0  0  0  0  0  0  0  0
   -2.5132    1.9481   -6.1970 C   0  0  0  0  0  0  0  0  0  0  0  0
   -3.6034    1.3916   -5.5527 C   0  0  0  0  0  0  0  0  0  0  0  0
   -3.4577    0.1631   -4.8716 C   0  0  0  0  0  0  0  0  0  0  0  0
   -2.1323   -1.4310   -4.3031 H   0  0  0  0  0  0  0  0  0  0  0  0
   -0.1180   -0.4055   -5.4544 H   0  0  0  0  0  0  0  0  0  0  0  0
   -2.6024    2.8890   -6.7284 H   0  0  0  0  0  0  0  0  0  0  0  0
   -4.5544    1.9073   -5.5788 H   0  0  0  0  0  0  0  0  0  0  0  0
   -0.2291    1.8323   -6.8425 N   0  0  0  0  0  0  0  0  0  0  0  0
    0.6123    2.2590   -7.4490 N   0  0  0  0  0  0  0  0  0  0  0  0
    2.4946   -0.2491   -6.7856 S   0  0  0  0  0  0  0  0  0  0  0  0
    4.2161    0.3963   -6.5322 C   0  0  0  0  0  0  0  0  0  0  0  0
    2.0250    0.4738   -8.0106 O   0  0  0  0  0  0  0  0  0  0  0  0
    1.7801    0.2115   -5.5589 O   0  0  0  0  0  0  0  0  0  0  0  0
    2.6393   -1.7012   -6.9324 O   0  0  0  0  0  0  0  0  0  0  0  0
    4.9926    0.0938   -7.5809 F   0  0  0  0  0  0  0  0  0  0  0  0
    4.1978    1.7331   -6.3904 F   0  0  0  0  0  0  0  0  0  0  0  0
    4.7605   -0.1373   -5.4302 F   0  0  0  0  0  0  0  0  0  0  0  0
   -4.4499   -0.4560   -4.2165 O   0  0  0  0  0  0  0  0  0  0  0  0
   -5.7533    0.1317   -4.1833 C   0  0  0  0  0  0  0  0  0  0  0  0
   -6.3677   -0.5532   -3.5999 H   0  0  0  0  0  0  0  0  0  0  0  0
   -6.1690    0.2268   -5.1924 H   0  0  0  0  0  0  0  0  0  0  0  0
   -5.7318    1.1114   -3.6938 H   0  0  0  0  0  0  0  0  0  0  0  0
  1  7  1  0  0  0  0
  2  8  1  0  0  0  0
  2  1  2  0  0  0  0
  3  2  1  0  0  0  0
  4  3  2  0  0  0  0
  4  5  1  0  0  0  0
  5  6  2  0  0  0  0
  6  1  1  0  0  0  0
  6 21  1  0  0  0  0
  9  4  1  0  0  0  0
 10  5  1  0  0  0  0
 11  3  1  0  0  0  0
 12 11  1  0  0  0  0
 13 14  1  0  0  0  0
 13 16  1  0  0  0  0
 14 19  1  0  0  0  0
 14 20  1  0  0  0  0
 15 13  2  0  0  0  0
 17 13  2  0  0  0  0
 18 14  1  0  0  0  0
 21 22  1  0  0  0  0
 22 25  1  0  0  0  0
 22 23  1  0  0  0  0
 24 22  1  0  0  0  0
M  RAD  3  11   2  12   3  16   2
M  END
