Coordinates from ORCA-job p-CH3O-Ph-N2-X-OTf-B3LYPG-6-31G_dp-scan-d09-49-n400
 OpenBabel08281820593D

 25 24  0  0  0  0  0  0  0  0999 V2000
   -2.3809   -0.9423   -5.3146 C   0  0  0  0  0  0  0  0  0  0  0  0
   -1.3509   -0.7514   -6.2117 C   0  0  0  0  0  0  0  0  0  0  0  0
   -1.1909    0.5300   -6.7717 C   0  0  0  0  0  0  0  0  0  0  0  0
   -2.0372    1.6027   -6.4401 C   0  0  0  0  0  0  0  0  0  0  0  0
   -3.0524    1.4002   -5.5203 C   0  0  0  0  0  0  0  0  0  0  0  0
   -3.2330    0.1227   -4.9523 C   0  0  0  0  0  0  0  0  0  0  0  0
   -2.5446   -1.9112   -4.8575 H   0  0  0  0  0  0  0  0  0  0  0  0
   -0.6696   -1.5463   -6.4781 H   0  0  0  0  0  0  0  0  0  0  0  0
   -1.8827    2.5773   -6.8893 H   0  0  0  0  0  0  0  0  0  0  0  0
   -3.6944    2.2290   -5.2518 H   0  0  0  0  0  0  0  0  0  0  0  0
   -0.2111    0.7857   -7.7098 N   0  0  0  0  0  0  0  0  0  0  0  0
    0.4439    1.1763   -8.5326 N   0  0  0  0  0  0  0  0  0  0  0  0
    2.8005   -0.2926   -6.9821 S   0  0  0  0  0  0  0  0  0  0  0  0
    2.8566    1.0619   -5.7101 C   0  0  0  0  0  0  0  0  0  0  0  0
    2.7045    0.4667   -8.2632 O   0  0  0  0  0  0  0  0  0  0  0  0
    1.5148   -0.9706   -6.6413 O   0  0  0  0  0  0  0  0  0  0  0  0
    4.0350   -1.0524   -6.7730 O   0  0  0  0  0  0  0  0  0  0  0  0
    3.9034    1.8717   -5.8956 F   0  0  0  0  0  0  0  0  0  0  0  0
    1.7284    1.8187   -5.7949 F   0  0  0  0  0  0  0  0  0  0  0  0
    2.9149    0.5643   -4.4684 F   0  0  0  0  0  0  0  0  0  0  0  0
   -4.1866   -0.1798   -4.0580 O   0  0  0  0  0  0  0  0  0  0  0  0
   -5.0811    0.8409   -3.6089 C   0  0  0  0  0  0  0  0  0  0  0  0
   -5.7408    0.3561   -2.8898 H   0  0  0  0  0  0  0  0  0  0  0  0
   -5.6750    1.2394   -4.4388 H   0  0  0  0  0  0  0  0  0  0  0  0
   -4.5364    1.6534   -3.1161 H   0  0  0  0  0  0  0  0  0  0  0  0
  1  6  1  0  0  0  0
  1  7  1  0  0  0  0
  2  1  2  0  0  0  0
  3  4  2  0  0  0  0
  3  2  1  0  0  0  0
  4  5  1  0  0  0  0
  5 10  1  0  0  0  0
  5  6  2  0  0  0  0
  6 21  1  0  0  0  0
  8  2  1  0  0  0  0
  9  4  1  0  0  0  0
 11  3  1  0  0  0  0
 12 11  1  0  0  0  0
 13 17  2  0  0  0  0
 13 16  1  0  0  0  0
 13 14  1  0  0  0  0
 14 20  1  0  0  0  0
 15 13  2  0  0  0  0
 18 14  1  0  0  0  0
 19 14  1  0  0  0  0
 21 22  1  0  0  0  0
 22 25  1  0  0  0  0
 22 23  1  0  0  0  0
 24 22  1  0  0  0  0
M  RAD  3  11   2  12   3  16   2
M  END
