Coordinates from ORCA-job p-CH3O-Ph-N2-X-OTf-B3LYPG-6-31G_dp-scan-d09-49-n400
 OpenBabel08281820593D

 25 24  0  0  0  0  0  0  0  0999 V2000
   -2.3212   -0.6479   -4.9288 C   0  0  0  0  0  0  0  0  0  0  0  0
   -1.1944   -0.2334   -5.6075 C   0  0  0  0  0  0  0  0  0  0  0  0
   -1.2349    1.0267   -6.2407 C   0  0  0  0  0  0  0  0  0  0  0  0
   -2.3690    1.8591   -6.1942 C   0  0  0  0  0  0  0  0  0  0  0  0
   -3.4907    1.4247   -5.5108 C   0  0  0  0  0  0  0  0  0  0  0  0
   -3.4742    0.1646   -4.8738 C   0  0  0  0  0  0  0  0  0  0  0  0
   -2.3411   -1.6053   -4.4214 H   0  0  0  0  0  0  0  0  0  0  0  0
   -0.2749   -0.8100   -5.6529 H   0  0  0  0  0  0  0  0  0  0  0  0
   -2.3605    2.8223   -6.6920 H   0  0  0  0  0  0  0  0  0  0  0  0
   -4.3671    2.0586   -5.4736 H   0  0  0  0  0  0  0  0  0  0  0  0
   -0.1498    1.4833   -6.9530 N   0  0  0  0  0  0  0  0  0  0  0  0
    0.6952    1.8805   -7.5772 N   0  0  0  0  0  0  0  0  0  0  0  0
    2.6898   -0.4925   -6.9460 S   0  0  0  0  0  0  0  0  0  0  0  0
    3.9342    0.7555   -6.3618 C   0  0  0  0  0  0  0  0  0  0  0  0
    2.1305    0.1507   -8.1780 O   0  0  0  0  0  0  0  0  0  0  0  0
    1.7041   -0.5036   -5.8269 O   0  0  0  0  0  0  0  0  0  0  0  0
    3.4552   -1.7213   -7.1686 O   0  0  0  0  0  0  0  0  0  0  0  0
    4.8934    0.9421   -7.2761 F   0  0  0  0  0  0  0  0  0  0  0  0
    3.3277    1.9433   -6.1420 F   0  0  0  0  0  0  0  0  0  0  0  0
    4.5060    0.3636   -5.2159 F   0  0  0  0  0  0  0  0  0  0  0  0
   -4.5071   -0.3459   -4.1884 O   0  0  0  0  0  0  0  0  0  0  0  0
   -5.7183    0.4049   -4.0675 C   0  0  0  0  0  0  0  0  0  0  0  0
   -6.3913   -0.2193   -3.4804 H   0  0  0  0  0  0  0  0  0  0  0  0
   -6.1623    0.5987   -5.0498 H   0  0  0  0  0  0  0  0  0  0  0  0
   -5.5450    1.3507   -3.5427 H   0  0  0  0  0  0  0  0  0  0  0  0
  1  6  1  0  0  0  0
  1  7  1  0  0  0  0
  2  1  2  0  0  0  0
  3  4  2  0  0  0  0
  3  2  1  0  0  0  0
  4  5  1  0  0  0  0
  5 10  1  0  0  0  0
  5  6  2  0  0  0  0
  6 21  1  0  0  0  0
  8  2  1  0  0  0  0
  9  4  1  0  0  0  0
 11  3  1  0  0  0  0
 12 11  1  0  0  0  0
 13 14  1  0  0  0  0
 13 16  1  0  0  0  0
 14 19  1  0  0  0  0
 14 20  1  0  0  0  0
 15 13  2  0  0  0  0
 17 13  2  0  0  0  0
 18 14  1  0  0  0  0
 21 22  1  0  0  0  0
 22 25  1  0  0  0  0
 22 23  1  0  0  0  0
 24 22  1  0  0  0  0
M  RAD  3  11   2  12   3  16   2
M  END
