Coordinates from ORCA-job p-CH3O-Ph-N2-X-OTf-B3LYPG-6-31G_dp-scan-d09-49-n400
 OpenBabel08281820593D

 25 24  0  0  0  0  0  0  0  0999 V2000
   -2.1901   -0.5238   -4.9408 C   0  0  0  0  0  0  0  0  0  0  0  0
   -1.1139    0.0248   -5.6049 C   0  0  0  0  0  0  0  0  0  0  0  0
   -1.3037    1.2689   -6.2459 C   0  0  0  0  0  0  0  0  0  0  0  0
   -2.5326    1.9537   -6.2170 C   0  0  0  0  0  0  0  0  0  0  0  0
   -3.5998    1.3874   -5.5433 C   0  0  0  0  0  0  0  0  0  0  0  0
   -3.4350    0.1406   -4.9016 C   0  0  0  0  0  0  0  0  0  0  0  0
   -2.0973   -1.4749   -4.4297 H   0  0  0  0  0  0  0  0  0  0  0  0
   -0.1287   -0.4321   -5.6151 H   0  0  0  0  0  0  0  0  0  0  0  0
   -2.6374    2.9080   -6.7207 H   0  0  0  0  0  0  0  0  0  0  0  0
   -4.5475    1.9093   -5.5168 H   0  0  0  0  0  0  0  0  0  0  0  0
   -0.2807    1.8476   -6.9605 N   0  0  0  0  0  0  0  0  0  0  0  0
    0.5284    2.2942   -7.5954 N   0  0  0  0  0  0  0  0  0  0  0  0
    2.4475   -0.1105   -6.7344 S   0  0  0  0  0  0  0  0  0  0  0  0
    4.2293    0.3246   -6.4515 C   0  0  0  0  0  0  0  0  0  0  0  0
    2.1053    0.5918   -8.0120 O   0  0  0  0  0  0  0  0  0  0  0  0
    1.7524    0.4925   -5.5611 O   0  0  0  0  0  0  0  0  0  0  0  0
    2.4093   -1.5778   -6.7977 O   0  0  0  0  0  0  0  0  0  0  0  0
    4.9917   -0.1385   -7.4507 F   0  0  0  0  0  0  0  0  0  0  0  0
    4.3812    1.6574   -6.3835 F   0  0  0  0  0  0  0  0  0  0  0  0
    4.6627   -0.2091   -5.3009 F   0  0  0  0  0  0  0  0  0  0  0  0
   -4.4037   -0.4912   -4.2243 O   0  0  0  0  0  0  0  0  0  0  0  0
   -5.7003    0.1034   -4.1199 C   0  0  0  0  0  0  0  0  0  0  0  0
   -6.2937   -0.5926   -3.5278 H   0  0  0  0  0  0  0  0  0  0  0  0
   -6.1583    0.2262   -5.1074 H   0  0  0  0  0  0  0  0  0  0  0  0
   -5.6506    1.0702   -3.6074 H   0  0  0  0  0  0  0  0  0  0  0  0
  1  6  1  0  0  0  0
  1  7  1  0  0  0  0
  2  1  2  0  0  0  0
  3  4  2  0  0  0  0
  3  2  1  0  0  0  0
  4  5  1  0  0  0  0
  5 10  1  0  0  0  0
  5  6  2  0  0  0  0
  6 21  1  0  0  0  0
  8  2  1  0  0  0  0
  9  4  1  0  0  0  0
 11  3  1  0  0  0  0
 12 11  1  0  0  0  0
 13 14  1  0  0  0  0
 13 16  1  0  0  0  0
 14 19  1  0  0  0  0
 14 20  1  0  0  0  0
 15 13  2  0  0  0  0
 17 13  2  0  0  0  0
 18 14  1  0  0  0  0
 21 22  1  0  0  0  0
 22 25  1  0  0  0  0
 22 23  1  0  0  0  0
 24 22  1  0  0  0  0
M  RAD  3  11   2  12   3  16   2
M  END
