Coordinates from ORCA-job p-CH3O-Ph-N2-X-OTf-B3LYPG-6-31G_dp-scan-d09-49-n400
 OpenBabel08281820593D

 25 24  0  0  0  0  0  0  0  0999 V2000
   -2.2793   -0.5817   -4.8974 C   0  0  0  0  0  0  0  0  0  0  0  0
   -1.1516   -0.1084   -5.5346 C   0  0  0  0  0  0  0  0  0  0  0  0
   -1.2364    1.1514   -6.1658 C   0  0  0  0  0  0  0  0  0  0  0  0
   -2.4100    1.9269   -6.1558 C   0  0  0  0  0  0  0  0  0  0  0  0
   -3.5322    1.4315   -5.5160 C   0  0  0  0  0  0  0  0  0  0  0  0
   -3.4738    0.1704   -4.8832 C   0  0  0  0  0  0  0  0  0  0  0  0
   -2.2684   -1.5406   -4.3925 H   0  0  0  0  0  0  0  0  0  0  0  0
   -0.1987   -0.6344   -5.5448 H   0  0  0  0  0  0  0  0  0  0  0  0
   -2.4320    2.8920   -6.6492 H   0  0  0  0  0  0  0  0  0  0  0  0
   -4.4408    2.0194   -5.5082 H   0  0  0  0  0  0  0  0  0  0  0  0
   -0.1457    1.6567   -6.8335 N   0  0  0  0  0  0  0  0  0  0  0  0
    0.7487    2.0054   -7.4162 N   0  0  0  0  0  0  0  0  0  0  0  0
    2.6084   -0.4875   -6.8338 S   0  0  0  0  0  0  0  0  0  0  0  0
    4.0334    0.6554   -6.5024 C   0  0  0  0  0  0  0  0  0  0  0  0
    1.9628    0.1287   -8.0394 O   0  0  0  0  0  0  0  0  0  0  0  0
    1.7727   -0.3240   -5.6102 O   0  0  0  0  0  0  0  0  0  0  0  0
    3.2111   -1.8049   -7.0523 O   0  0  0  0  0  0  0  0  0  0  0  0
    4.8858    0.6683   -7.5343 F   0  0  0  0  0  0  0  0  0  0  0  0
    3.5818    1.9136   -6.3145 F   0  0  0  0  0  0  0  0  0  0  0  0
    4.6998    0.2831   -5.4019 F   0  0  0  0  0  0  0  0  0  0  0  0
   -4.5033   -0.3956   -4.2372 O   0  0  0  0  0  0  0  0  0  0  0  0
   -5.7560    0.2900   -4.1603 C   0  0  0  0  0  0  0  0  0  0  0  0
   -6.4163   -0.3704   -3.5991 H   0  0  0  0  0  0  0  0  0  0  0  0
   -6.1732    0.4627   -5.1583 H   0  0  0  0  0  0  0  0  0  0  0  0
   -5.6523    1.2421   -3.6289 H   0  0  0  0  0  0  0  0  0  0  0  0
  1  6  1  0  0  0  0
  1  7  1  0  0  0  0
  2  1  2  0  0  0  0
  3  4  2  0  0  0  0
  3  2  1  0  0  0  0
  4  5  1  0  0  0  0
  5 10  1  0  0  0  0
  5  6  2  0  0  0  0
  6 21  1  0  0  0  0
  8  2  1  0  0  0  0
  9  4  1  0  0  0  0
 11  3  1  0  0  0  0
 12 11  1  0  0  0  0
 13 14  1  0  0  0  0
 13 16  1  0  0  0  0
 14 19  1  0  0  0  0
 14 20  1  0  0  0  0
 15 13  2  0  0  0  0
 17 13  2  0  0  0  0
 18 14  1  0  0  0  0
 21 22  1  0  0  0  0
 22 25  1  0  0  0  0
 22 23  1  0  0  0  0
 24 22  1  0  0  0  0
M  RAD  3  11   2  12   3  16   2
M  END
