Coordinates from ORCA-job p-CH3O-Ph-N2-X-OTf-B3LYPG-6-31G_dp-scan-d09-49-n400
 OpenBabel08281820593D

 25 24  0  0  0  0  0  0  0  0999 V2000
   -2.1731   -0.6517   -5.2680 C   0  0  0  0  0  0  0  0  0  0  0  0
   -1.1705   -0.1282   -6.0556 C   0  0  0  0  0  0  0  0  0  0  0  0
   -1.3661    1.1663   -6.5890 C   0  0  0  0  0  0  0  0  0  0  0  0
   -2.5263    1.9194   -6.3353 C   0  0  0  0  0  0  0  0  0  0  0  0
   -3.5144    1.3815   -5.5304 C   0  0  0  0  0  0  0  0  0  0  0  0
   -3.3426    0.0888   -4.9905 C   0  0  0  0  0  0  0  0  0  0  0  0
   -2.0733   -1.6399   -4.8348 H   0  0  0  0  0  0  0  0  0  0  0  0
   -0.2567   -0.6778   -6.2488 H   0  0  0  0  0  0  0  0  0  0  0  0
   -2.6366    2.9098   -6.7622 H   0  0  0  0  0  0  0  0  0  0  0  0
   -4.4059    1.9600   -5.3269 H   0  0  0  0  0  0  0  0  0  0  0  0
   -0.4168    1.7309   -7.4042 N   0  0  0  0  0  0  0  0  0  0  0  0
    0.3512    2.1609   -8.0982 N   0  0  0  0  0  0  0  0  0  0  0  0
    2.3278    0.1487   -6.6508 S   0  0  0  0  0  0  0  0  0  0  0  0
    4.0879    0.3063   -6.0811 C   0  0  0  0  0  0  0  0  0  0  0  0
    2.3216    0.7959   -7.9986 O   0  0  0  0  0  0  0  0  0  0  0  0
    1.5437    0.9151   -5.6450 O   0  0  0  0  0  0  0  0  0  0  0  0
    2.0590   -1.3043   -6.6596 O   0  0  0  0  0  0  0  0  0  0  0  0
    4.9122   -0.3393   -6.9161 F   0  0  0  0  0  0  0  0  0  0  0  0
    4.4515    1.5965   -6.0337 F   0  0  0  0  0  0  0  0  0  0  0  0
    4.2257   -0.2173   -4.8541 F   0  0  0  0  0  0  0  0  0  0  0  0
   -4.2371   -0.5232   -4.2024 O   0  0  0  0  0  0  0  0  0  0  0  0
   -5.4479    0.1500   -3.8479 C   0  0  0  0  0  0  0  0  0  0  0  0
   -5.9884   -0.5424   -3.2030 H   0  0  0  0  0  0  0  0  0  0  0  0
   -6.0515    0.3699   -4.7353 H   0  0  0  0  0  0  0  0  0  0  0  0
   -5.2389    1.0743   -3.2985 H   0  0  0  0  0  0  0  0  0  0  0  0
  1  6  1  0  0  0  0
  1  7  1  0  0  0  0
  2  1  2  0  0  0  0
  3  4  2  0  0  0  0
  3  2  1  0  0  0  0
  4  5  1  0  0  0  0
  5 10  1  0  0  0  0
  5  6  2  0  0  0  0
  6 21  1  0  0  0  0
  8  2  1  0  0  0  0
  9  4  1  0  0  0  0
 11  3  1  0  0  0  0
 12 11  1  0  0  0  0
 13 14  1  0  0  0  0
 13 16  1  0  0  0  0
 14 19  1  0  0  0  0
 14 20  1  0  0  0  0
 15 13  2  0  0  0  0
 17 13  2  0  0  0  0
 18 14  1  0  0  0  0
 21 22  1  0  0  0  0
 22 25  1  0  0  0  0
 22 23  1  0  0  0  0
 24 22  1  0  0  0  0
M  RAD  3  11   2  12   3  16   2
M  END
