Coordinates from ORCA-job p-CH3O-Ph-N2-X-OTf-B3LYPG-6-31G_dp-scan-d09-49-n400
 OpenBabel08281820593D

 25 24  0  0  0  0  0  0  0  0999 V2000
   -1.9601   -0.2581   -4.8885 C   0  0  0  0  0  0  0  0  0  0  0  0
   -0.9798    0.4886   -5.5092 C   0  0  0  0  0  0  0  0  0  0  0  0
   -1.4037    1.6298   -6.2279 C   0  0  0  0  0  0  0  0  0  0  0  0
   -2.7498    2.0258   -6.3215 C   0  0  0  0  0  0  0  0  0  0  0  0
   -3.7123    1.2560   -5.6957 C   0  0  0  0  0  0  0  0  0  0  0  0
   -3.3213    0.1052   -4.9739 C   0  0  0  0  0  0  0  0  0  0  0  0
   -1.6960   -1.1414   -4.3178 H   0  0  0  0  0  0  0  0  0  0  0  0
    0.0888    0.2299   -5.4264 H   0  0  0  0  0  0  0  0  0  0  0  0
   -3.0229    2.9142   -6.8803 H   0  0  0  0  0  0  0  0  0  0  0  0
   -4.7528    1.5467   -5.7649 H   0  0  0  0  0  0  0  0  0  0  0  0
   -0.4556    2.3971   -6.8619 N   0  0  0  0  0  0  0  0  0  0  0  0
    0.4521    2.8499   -7.3433 N   0  0  0  0  0  0  0  0  0  0  0  0
    2.6511    0.7385   -6.1451 S   0  0  0  0  0  0  0  0  0  0  0  0
    3.9385   -0.4685   -6.7250 C   0  0  0  0  0  0  0  0  0  0  0  0
    1.8549    0.9917   -7.3942 O   0  0  0  0  0  0  0  0  0  0  0  0
    3.3983    1.8968   -5.6378 O   0  0  0  0  0  0  0  0  0  0  0  0
    1.8690   -0.0300   -5.1365 O   0  0  0  0  0  0  0  0  0  0  0  0
    3.3604   -1.5705   -7.2269 F   0  0  0  0  0  0  0  0  0  0  0  0
    4.6999    0.0833   -7.6789 F   0  0  0  0  0  0  0  0  0  0  0  0
    4.7271   -0.8304   -5.7039 F   0  0  0  0  0  0  0  0  0  0  0  0
   -4.1754   -0.7021   -4.3302 O   0  0  0  0  0  0  0  0  0  0  0  0
   -5.5761   -0.4156   -4.3510 C   0  0  0  0  0  0  0  0  0  0  0  0
   -6.0446   -1.2049   -3.7643 H   0  0  0  0  0  0  0  0  0  0  0  0
   -5.9683   -0.4381   -5.3734 H   0  0  0  0  0  0  0  0  0  0  0  0
   -5.7870    0.5563   -3.8915 H   0  0  0  0  0  0  0  0  0  0  0  0
  1  7  1  0  0  0  0
  2  8  1  0  0  0  0
  2  1  2  0  0  0  0
  3  2  1  0  0  0  0
  4  3  2  0  0  0  0
  4  5  1  0  0  0  0
  5  6  2  0  0  0  0
  6  1  1  0  0  0  0
  6 21  1  0  0  0  0
  9  4  1  0  0  0  0
 10  5  1  0  0  0  0
 11  3  1  0  0  0  0
 12 11  1  0  0  0  0
 13 16  2  0  0  0  0
 13 17  1  0  0  0  0
 14 13  1  0  0  0  0
 14 20  1  0  0  0  0
 15 13  2  0  0  0  0
 18 14  1  0  0  0  0
 19 14  1  0  0  0  0
 22 21  1  0  0  0  0
 22 25  1  0  0  0  0
 22 23  1  0  0  0  0
 24 22  1  0  0  0  0
M  RAD  3  11   2  12   3  17   2
M  END
