Coordinates from ORCA-job p-CH3O-Ph-N2-X-OTf-B3LYPG-6-31G_dp-scan-d09-49-n400
 OpenBabel08281820593D

 25 24  0  0  0  0  0  0  0  0999 V2000
   -2.3470   -0.7154   -4.9579 C   0  0  0  0  0  0  0  0  0  0  0  0
   -1.2266   -0.3603   -5.6799 C   0  0  0  0  0  0  0  0  0  0  0  0
   -1.2260    0.8938   -6.3230 C   0  0  0  0  0  0  0  0  0  0  0  0
   -2.3177    1.7797   -6.2427 C   0  0  0  0  0  0  0  0  0  0  0  0
   -3.4322    1.4084   -5.5116 C   0  0  0  0  0  0  0  0  0  0  0  0
   -3.4547    0.1542   -4.8643 C   0  0  0  0  0  0  0  0  0  0  0  0
   -2.3954   -1.6682   -4.4437 H   0  0  0  0  0  0  0  0  0  0  0  0
   -0.3451   -0.9865   -5.7551 H   0  0  0  0  0  0  0  0  0  0  0  0
   -2.2815    2.7374   -6.7500 H   0  0  0  0  0  0  0  0  0  0  0  0
   -4.2733    2.0865   -5.4470 H   0  0  0  0  0  0  0  0  0  0  0  0
   -0.1530    1.3022   -7.0867 N   0  0  0  0  0  0  0  0  0  0  0  0
    0.6015    1.7650   -7.7785 N   0  0  0  0  0  0  0  0  0  0  0  0
    2.7452   -0.4415   -7.0558 S   0  0  0  0  0  0  0  0  0  0  0  0
    3.8010    0.8278   -6.2056 C   0  0  0  0  0  0  0  0  0  0  0  0
    2.3203    0.2643   -8.3038 O   0  0  0  0  0  0  0  0  0  0  0  0
    1.6130   -0.5992   -6.0964 O   0  0  0  0  0  0  0  0  0  0  0  0
    3.6187   -1.6010   -7.2435 O   0  0  0  0  0  0  0  0  0  0  0  0
    4.8680    1.1431   -6.9488 F   0  0  0  0  0  0  0  0  0  0  0  0
    3.0864    1.9563   -5.9975 F   0  0  0  0  0  0  0  0  0  0  0  0
    4.2254    0.3820   -5.0157 F   0  0  0  0  0  0  0  0  0  0  0  0
   -4.4844   -0.2990   -4.1348 O   0  0  0  0  0  0  0  0  0  0  0  0
   -5.6495    0.5140   -3.9725 C   0  0  0  0  0  0  0  0  0  0  0  0
   -6.3280   -0.0688   -3.3502 H   0  0  0  0  0  0  0  0  0  0  0  0
   -6.1244    0.7204   -4.9378 H   0  0  0  0  0  0  0  0  0  0  0  0
   -5.4065    1.4550   -3.4673 H   0  0  0  0  0  0  0  0  0  0  0  0
  1  6  1  0  0  0  0
  1  7  1  0  0  0  0
  2  1  2  0  0  0  0
  3  4  2  0  0  0  0
  3  2  1  0  0  0  0
  4  5  1  0  0  0  0
  5 10  1  0  0  0  0
  5  6  2  0  0  0  0
  6 21  1  0  0  0  0
  8  2  1  0  0  0  0
  9  4  1  0  0  0  0
 11  3  1  0  0  0  0
 12 11  1  0  0  0  0
 13 14  1  0  0  0  0
 13 16  1  0  0  0  0
 14 19  1  0  0  0  0
 14 20  1  0  0  0  0
 15 13  2  0  0  0  0
 17 13  2  0  0  0  0
 18 14  1  0  0  0  0
 21 22  1  0  0  0  0
 22 25  1  0  0  0  0
 22 23  1  0  0  0  0
 24 22  1  0  0  0  0
M  RAD  3  11   2  12   3  16   2
M  END
