Coordinates from ORCA-job p-CH3O-Ph-N2-X-OTf-B3LYPG-6-31G_dp-scan-d09-49-n400
 OpenBabel08281820593D

 25 24  0  0  0  0  0  0  0  0999 V2000
   -2.1099   -0.4979   -5.1307 C   0  0  0  0  0  0  0  0  0  0  0  0
   -1.0940    0.1431   -5.8082 C   0  0  0  0  0  0  0  0  0  0  0  0
   -1.3869    1.4039   -6.3774 C   0  0  0  0  0  0  0  0  0  0  0  0
   -2.6498    2.0099   -6.2698 C   0  0  0  0  0  0  0  0  0  0  0  0
   -3.6557    1.3468   -5.5898 C   0  0  0  0  0  0  0  0  0  0  0  0
   -3.3903    0.0850   -5.0150 C   0  0  0  0  0  0  0  0  0  0  0  0
   -1.9365   -1.4624   -4.6679 H   0  0  0  0  0  0  0  0  0  0  0  0
   -0.0969   -0.2929   -5.8733 H   0  0  0  0  0  0  0  0  0  0  0  0
   -2.8274    2.9819   -6.7160 H   0  0  0  0  0  0  0  0  0  0  0  0
   -4.6315    1.8069   -5.5036 H   0  0  0  0  0  0  0  0  0  0  0  0
   -0.4018    2.0793   -7.0608 N   0  0  0  0  0  0  0  0  0  0  0  0
    0.5402    2.4095   -7.5801 N   0  0  0  0  0  0  0  0  0  0  0  0
    2.4474    0.4293   -6.1999 S   0  0  0  0  0  0  0  0  0  0  0  0
    4.2067   -0.0406   -6.5630 C   0  0  0  0  0  0  0  0  0  0  0  0
    1.8220    0.5136   -7.5677 O   0  0  0  0  0  0  0  0  0  0  0  0
    2.5163    1.7321   -5.5106 O   0  0  0  0  0  0  0  0  0  0  0  0
    1.9127   -0.7037   -5.4090 O   0  0  0  0  0  0  0  0  0  0  0  0
    4.2539   -1.2034   -7.2262 F   0  0  0  0  0  0  0  0  0  0  0  0
    4.7952    0.9022   -7.3118 F   0  0  0  0  0  0  0  0  0  0  0  0
    4.8943   -0.1705   -5.4206 F   0  0  0  0  0  0  0  0  0  0  0  0
   -4.2918   -0.6363   -4.3337 O   0  0  0  0  0  0  0  0  0  0  0  0
   -5.6158   -0.1278   -4.1522 C   0  0  0  0  0  0  0  0  0  0  0  0
   -6.1410   -0.8830   -3.5681 H   0  0  0  0  0  0  0  0  0  0  0  0
   -6.1219    0.0071   -5.1142 H   0  0  0  0  0  0  0  0  0  0  0  0
   -5.6030    0.8183   -3.6004 H   0  0  0  0  0  0  0  0  0  0  0  0
  1  6  1  0  0  0  0
  1  7  1  0  0  0  0
  2  1  2  0  0  0  0
  3  4  2  0  0  0  0
  3  2  1  0  0  0  0
  4  5  1  0  0  0  0
  5 10  1  0  0  0  0
  5  6  2  0  0  0  0
  6 21  1  0  0  0  0
  8  2  1  0  0  0  0
  9  4  1  0  0  0  0
 11  3  1  0  0  0  0
 12 11  1  0  0  0  0
 13 16  2  0  0  0  0
 13 17  1  0  0  0  0
 14 13  1  0  0  0  0
 14 20  1  0  0  0  0
 15 13  2  0  0  0  0
 18 14  1  0  0  0  0
 19 14  1  0  0  0  0
 21 22  1  0  0  0  0
 22 25  1  0  0  0  0
 22 23  1  0  0  0  0
 24 22  1  0  0  0  0
M  RAD  3  11   2  12   3  17   2
M  END
