Coordinates from ORCA-job p-CH3O-Ph-N2-X-OTf-B3LYPG-6-31G_dp-scan-d09-49-n400
 OpenBabel08281820593D

 25 24  0  0  0  0  0  0  0  0999 V2000
   -2.2831   -0.5876   -4.9013 C   0  0  0  0  0  0  0  0  0  0  0  0
   -1.1554   -0.1194   -5.5424 C   0  0  0  0  0  0  0  0  0  0  0  0
   -1.2367    1.1406   -6.1737 C   0  0  0  0  0  0  0  0  0  0  0  0
   -2.4071    1.9210   -6.1603 C   0  0  0  0  0  0  0  0  0  0  0  0
   -3.5292    1.4308   -5.5164 C   0  0  0  0  0  0  0  0  0  0  0  0
   -3.4741    0.1698   -4.8830 C   0  0  0  0  0  0  0  0  0  0  0  0
   -2.2746   -1.5463   -4.3959 H   0  0  0  0  0  0  0  0  0  0  0  0
   -0.2049   -0.6495   -5.5557 H   0  0  0  0  0  0  0  0  0  0  0  0
   -2.4267    2.8859   -6.6542 H   0  0  0  0  0  0  0  0  0  0  0  0
   -4.4352    2.0227   -5.5058 H   0  0  0  0  0  0  0  0  0  0  0  0
   -0.1463    1.6420   -6.8450 N   0  0  0  0  0  0  0  0  0  0  0  0
    0.7448    1.9941   -7.4307 N   0  0  0  0  0  0  0  0  0  0  0  0
    2.6157   -0.4898   -6.8439 S   0  0  0  0  0  0  0  0  0  0  0  0
    4.0252    0.6651   -6.4887 C   0  0  0  0  0  0  0  0  0  0  0  0
    1.9772    0.1285   -8.0520 O   0  0  0  0  0  0  0  0  0  0  0  0
    1.7656   -0.3430   -5.6281 O   0  0  0  0  0  0  0  0  0  0  0  0
    3.2342   -1.7993   -7.0645 O   0  0  0  0  0  0  0  0  0  0  0  0
    4.8877    0.6958   -7.5117 F   0  0  0  0  0  0  0  0  0  0  0  0
    3.5584    1.9170   -6.2949 F   0  0  0  0  0  0  0  0  0  0  0  0
    4.6844    0.2909   -5.3846 F   0  0  0  0  0  0  0  0  0  0  0  0
   -4.5037   -0.3912   -4.2328 O   0  0  0  0  0  0  0  0  0  0  0  0
   -5.7527    0.3007   -4.1507 C   0  0  0  0  0  0  0  0  0  0  0  0
   -6.4137   -0.3563   -3.5864 H   0  0  0  0  0  0  0  0  0  0  0  0
   -6.1734    0.4751   -5.1469 H   0  0  0  0  0  0  0  0  0  0  0  0
   -5.6419    1.2524   -3.6201 H   0  0  0  0  0  0  0  0  0  0  0  0
  1  6  1  0  0  0  0
  1  7  1  0  0  0  0
  2  1  2  0  0  0  0
  3  4  2  0  0  0  0
  3  2  1  0  0  0  0
  4  5  1  0  0  0  0
  5 10  1  0  0  0  0
  5  6  2  0  0  0  0
  6 21  1  0  0  0  0
  8  2  1  0  0  0  0
  9  4  1  0  0  0  0
 11  3  1  0  0  0  0
 12 11  1  0  0  0  0
 13 14  1  0  0  0  0
 13 16  1  0  0  0  0
 14 19  1  0  0  0  0
 14 20  1  0  0  0  0
 15 13  2  0  0  0  0
 17 13  2  0  0  0  0
 18 14  1  0  0  0  0
 21 22  1  0  0  0  0
 22 25  1  0  0  0  0
 22 23  1  0  0  0  0
 24 22  1  0  0  0  0
M  RAD  3  11   2  12   3  16   2
M  END
