Coordinates from ORCA-job p-CH3O-Ph-N2-X-OTf-B3LYPG-6-31G_dp-scan-d09-49-n400
 OpenBabel08281820593D

 25 24  0  0  0  0  0  0  0  0999 V2000
   -2.2619   -0.5593   -4.8894 C   0  0  0  0  0  0  0  0  0  0  0  0
   -1.1365   -0.0645   -5.5142 C   0  0  0  0  0  0  0  0  0  0  0  0
   -1.2386    1.1949   -6.1441 C   0  0  0  0  0  0  0  0  0  0  0  0
   -2.4256    1.9493   -6.1444 C   0  0  0  0  0  0  0  0  0  0  0  0
   -3.5452    1.4319   -5.5176 C   0  0  0  0  0  0  0  0  0  0  0  0
   -3.4702    0.1707   -4.8868 C   0  0  0  0  0  0  0  0  0  0  0  0
   -2.2387   -1.5187   -4.3858 H   0  0  0  0  0  0  0  0  0  0  0  0
   -0.1730   -0.5720   -5.5138 H   0  0  0  0  0  0  0  0  0  0  0  0
   -2.4600    2.9149   -6.6362 H   0  0  0  0  0  0  0  0  0  0  0  0
   -4.4645    2.0029   -5.5181 H   0  0  0  0  0  0  0  0  0  0  0  0
   -0.1490    1.7183   -6.7994 N   0  0  0  0  0  0  0  0  0  0  0  0
    0.7567    2.0581   -7.3697 N   0  0  0  0  0  0  0  0  0  0  0  0
    2.5739   -0.4662   -6.7908 S   0  0  0  0  0  0  0  0  0  0  0  0
    4.0679    0.6084   -6.5481 C   0  0  0  0  0  0  0  0  0  0  0  0
    1.9144    0.1466   -7.9912 O   0  0  0  0  0  0  0  0  0  0  0  0
    1.7935   -0.2238   -5.5439 O   0  0  0  0  0  0  0  0  0  0  0  0
    3.0953   -1.8209   -6.9894 O   0  0  0  0  0  0  0  0  0  0  0  0
    4.8818    0.5414   -7.6088 F   0  0  0  0  0  0  0  0  0  0  0  0
    3.6906    1.8934   -6.3876 F   0  0  0  0  0  0  0  0  0  0  0  0
    4.7530    0.2349   -5.4594 F   0  0  0  0  0  0  0  0  0  0  0  0
   -4.4958   -0.4158   -4.2530 O   0  0  0  0  0  0  0  0  0  0  0  0
   -5.7625    0.2452   -4.1904 C   0  0  0  0  0  0  0  0  0  0  0  0
   -6.4162   -0.4283   -3.6372 H   0  0  0  0  0  0  0  0  0  0  0  0
   -6.1713    0.4102   -5.1932 H   0  0  0  0  0  0  0  0  0  0  0  0
   -5.6837    1.1988   -3.6576 H   0  0  0  0  0  0  0  0  0  0  0  0
  1  6  1  0  0  0  0
  1  7  1  0  0  0  0
  2  8  1  0  0  0  0
  2  1  2  0  0  0  0
  3  2  1  0  0  0  0
  4  3  2  0  0  0  0
  4  5  1  0  0  0  0
  5  6  2  0  0  0  0
  6 21  1  0  0  0  0
  9  4  1  0  0  0  0
 10  5  1  0  0  0  0
 11  3  1  0  0  0  0
 12 11  1  0  0  0  0
 13 14  1  0  0  0  0
 13 16  1  0  0  0  0
 14 19  1  0  0  0  0
 14 20  1  0  0  0  0
 15 13  2  0  0  0  0
 17 13  2  0  0  0  0
 18 14  1  0  0  0  0
 21 22  1  0  0  0  0
 22 25  1  0  0  0  0
 22 23  1  0  0  0  0
 24 22  1  0  0  0  0
M  RAD  3  11   2  12   3  16   2
M  END
