Coordinates from ORCA-job p-CH3O-Ph-N2-X-OTf-B3LYPG-6-31G_dp-scan-d09-49-n400
 OpenBabel08281820593D

 25 24  0  0  0  0  0  0  0  0999 V2000
   -2.3643   -0.8139   -5.0561 C   0  0  0  0  0  0  0  0  0  0  0  0
   -1.2703   -0.5477   -5.8535 C   0  0  0  0  0  0  0  0  0  0  0  0
   -1.2029    0.7066   -6.4891 C   0  0  0  0  0  0  0  0  0  0  0  0
   -2.2067    1.6804   -6.3263 C   0  0  0  0  0  0  0  0  0  0  0  0
   -3.2919    1.4028   -5.5134 C   0  0  0  0  0  0  0  0  0  0  0  0
   -3.3797    0.1486   -4.8737 C   0  0  0  0  0  0  0  0  0  0  0  0
   -2.4602   -1.7663   -4.5477 H   0  0  0  0  0  0  0  0  0  0  0  0
   -0.4693   -1.2602   -5.9903 H   0  0  0  0  0  0  0  0  0  0  0  0
   -2.1233    2.6370   -6.8301 H   0  0  0  0  0  0  0  0  0  0  0  0
   -4.0600    2.1539   -5.3812 H   0  0  0  0  0  0  0  0  0  0  0  0
   -0.1581    1.0379   -7.3306 N   0  0  0  0  0  0  0  0  0  0  0  0
    0.5138    1.5314   -8.0849 N   0  0  0  0  0  0  0  0  0  0  0  0
    2.8337   -0.3843   -7.1396 S   0  0  0  0  0  0  0  0  0  0  0  0
    3.4215    0.9271   -5.9622 C   0  0  0  0  0  0  0  0  0  0  0  0
    2.5355    0.3969   -8.3785 O   0  0  0  0  0  0  0  0  0  0  0  0
    1.5843   -0.8589   -6.4747 O   0  0  0  0  0  0  0  0  0  0  0  0
    3.9476   -1.3304   -7.2343 O   0  0  0  0  0  0  0  0  0  0  0  0
    4.5122    1.5448   -6.4269 F   0  0  0  0  0  0  0  0  0  0  0  0
    2.4525    1.8604   -5.7927 F   0  0  0  0  0  0  0  0  0  0  0  0
    3.7029    0.4075   -4.7600 F   0  0  0  0  0  0  0  0  0  0  0  0
   -4.3894   -0.2215   -4.0722 O   0  0  0  0  0  0  0  0  0  0  0  0
   -5.4627    0.6892   -3.8208 C   0  0  0  0  0  0  0  0  0  0  0  0
   -6.1425    0.1624   -3.1517 H   0  0  0  0  0  0  0  0  0  0  0  0
   -5.9877    0.9464   -4.7473 H   0  0  0  0  0  0  0  0  0  0  0  0
   -5.1007    1.6001   -3.3321 H   0  0  0  0  0  0  0  0  0  0  0  0
  1  6  1  0  0  0  0
  1  7  1  0  0  0  0
  2  1  2  0  0  0  0
  3  4  2  0  0  0  0
  3  2  1  0  0  0  0
  4  5  1  0  0  0  0
  5 10  1  0  0  0  0
  5  6  2  0  0  0  0
  6 21  1  0  0  0  0
  8  2  1  0  0  0  0
  9  4  1  0  0  0  0
 11  3  1  0  0  0  0
 12 11  1  0  0  0  0
 13 16  1  0  0  0  0
 13 14  1  0  0  0  0
 14 19  1  0  0  0  0
 14 20  1  0  0  0  0
 15 13  2  0  0  0  0
 17 13  2  0  0  0  0
 18 14  1  0  0  0  0
 21 22  1  0  0  0  0
 22 25  1  0  0  0  0
 22 23  1  0  0  0  0
 24 22  1  0  0  0  0
M  RAD  3  11   2  12   3  16   2
M  END
