Coordinates from ORCA-job p-CH3O-Ph-N2-X-OTf-B3LYPG-6-31G_dp-scan-d09-49-n400
 OpenBabel08281820593D

 25 24  0  0  0  0  0  0  0  0999 V2000
   -2.2457   -0.5431   -4.8875 C   0  0  0  0  0  0  0  0  0  0  0  0
   -1.1241   -0.0303   -5.5045 C   0  0  0  0  0  0  0  0  0  0  0  0
   -1.2422    1.2283   -6.1336 C   0  0  0  0  0  0  0  0  0  0  0  0
   -2.4406    1.9641   -6.1410 C   0  0  0  0  0  0  0  0  0  0  0  0
   -3.5560    1.4284   -5.5221 C   0  0  0  0  0  0  0  0  0  0  0  0
   -3.4651    0.1680   -4.8918 C   0  0  0  0  0  0  0  0  0  0  0  0
   -2.2106   -1.5023   -4.3843 H   0  0  0  0  0  0  0  0  0  0  0  0
   -0.1514   -0.5207   -5.4951 H   0  0  0  0  0  0  0  0  0  0  0  0
   -2.4869    2.9294   -6.6324 H   0  0  0  0  0  0  0  0  0  0  0  0
   -4.4842    1.9849   -5.5280 H   0  0  0  0  0  0  0  0  0  0  0  0
   -0.1560    1.7686   -6.7810 N   0  0  0  0  0  0  0  0  0  0  0  0
    0.7513    2.1100   -7.3472 N   0  0  0  0  0  0  0  0  0  0  0  0
    2.5409   -0.4324   -6.7573 S   0  0  0  0  0  0  0  0  0  0  0  0
    4.0979    0.5609   -6.5756 C   0  0  0  0  0  0  0  0  0  0  0  0
    1.8888    0.1829   -7.9606 O   0  0  0  0  0  0  0  0  0  0  0  0
    1.8021   -0.1141   -5.5019 O   0  0  0  0  0  0  0  0  0  0  0  0
    2.9756   -1.8213   -6.9269 O   0  0  0  0  0  0  0  0  0  0  0  0
    4.8827    0.4193   -7.6507 F   0  0  0  0  0  0  0  0  0  0  0  0
    3.7970    1.8679   -6.4423 F   0  0  0  0  0  0  0  0  0  0  0  0
    4.7845    0.1761   -5.4917 F   0  0  0  0  0  0  0  0  0  0  0  0
   -4.4853   -0.4345   -4.2641 O   0  0  0  0  0  0  0  0  0  0  0  0
   -5.7619    0.2074   -4.2074 C   0  0  0  0  0  0  0  0  0  0  0  0
   -6.4078   -0.4754   -3.6562 H   0  0  0  0  0  0  0  0  0  0  0  0
   -6.1690    0.3653   -5.2120 H   0  0  0  0  0  0  0  0  0  0  0  0
   -5.6997    1.1626   -3.6752 H   0  0  0  0  0  0  0  0  0  0  0  0
  1  7  1  0  0  0  0
  2  8  1  0  0  0  0
  2  1  2  0  0  0  0
  3  2  1  0  0  0  0
  4  3  2  0  0  0  0
  4  5  1  0  0  0  0
  5  6  2  0  0  0  0
  6  1  1  0  0  0  0
  6 21  1  0  0  0  0
  9  4  1  0  0  0  0
 10  5  1  0  0  0  0
 11  3  1  0  0  0  0
 12 11  1  0  0  0  0
 13 14  1  0  0  0  0
 13 16  1  0  0  0  0
 14 19  1  0  0  0  0
 14 20  1  0  0  0  0
 15 13  2  0  0  0  0
 17 13  2  0  0  0  0
 18 14  1  0  0  0  0
 21 22  1  0  0  0  0
 22 25  1  0  0  0  0
 22 23  1  0  0  0  0
 24 22  1  0  0  0  0
M  RAD  3  11   2  12   3  16   2
M  END
