Coordinates from ORCA-job p-CH3O-Ph-N2-X-OTf-B3LYPG-6-31G_dp-scan-d09-49-n400
 OpenBabel08281820593D

 25 24  0  0  0  0  0  0  0  0999 V2000
   -2.3411   -0.7014   -4.9472 C   0  0  0  0  0  0  0  0  0  0  0  0
   -1.2200   -0.3351   -5.6625 C   0  0  0  0  0  0  0  0  0  0  0  0
   -1.2305    0.9175   -6.3090 C   0  0  0  0  0  0  0  0  0  0  0  0
   -2.3333    1.7902   -6.2397 C   0  0  0  0  0  0  0  0  0  0  0  0
   -3.4485    1.4073   -5.5158 C   0  0  0  0  0  0  0  0  0  0  0  0
   -3.4599    0.1549   -4.8644 C   0  0  0  0  0  0  0  0  0  0  0  0
   -2.3815   -1.6529   -4.4298 H   0  0  0  0  0  0  0  0  0  0  0  0
   -0.3284   -0.9489   -5.7296 H   0  0  0  0  0  0  0  0  0  0  0  0
   -2.3052    2.7466   -6.7499 H   0  0  0  0  0  0  0  0  0  0  0  0
   -4.2985    2.0748   -5.4598 H   0  0  0  0  0  0  0  0  0  0  0  0
   -0.1564    1.3355   -7.0653 N   0  0  0  0  0  0  0  0  0  0  0  0
    0.6081    1.7962   -7.7473 N   0  0  0  0  0  0  0  0  0  0  0  0
    2.7302   -0.4398   -7.0400 S   0  0  0  0  0  0  0  0  0  0  0  0
    3.8419    0.8079   -6.2306 C   0  0  0  0  0  0  0  0  0  0  0  0
    2.2945    0.2636   -8.2857 O   0  0  0  0  0  0  0  0  0  0  0  0
    1.6181   -0.5560   -6.0515 O   0  0  0  0  0  0  0  0  0  0  0  0
    3.5640   -1.6270   -7.2355 O   0  0  0  0  0  0  0  0  0  0  0  0
    4.8963    1.0872   -7.0055 F   0  0  0  0  0  0  0  0  0  0  0  0
    3.1636    1.9566   -6.0146 F   0  0  0  0  0  0  0  0  0  0  0  0
    4.2864    0.3609   -5.0485 F   0  0  0  0  0  0  0  0  0  0  0  0
   -4.4891   -0.3083   -4.1404 O   0  0  0  0  0  0  0  0  0  0  0  0
   -5.6647    0.4915   -3.9880 C   0  0  0  0  0  0  0  0  0  0  0  0
   -6.3401   -0.0971   -3.3678 H   0  0  0  0  0  0  0  0  0  0  0  0
   -6.1360    0.6890   -4.9569 H   0  0  0  0  0  0  0  0  0  0  0  0
   -5.4358    1.4370   -3.4846 H   0  0  0  0  0  0  0  0  0  0  0  0
  1  6  1  0  0  0  0
  1  7  1  0  0  0  0
  2  1  2  0  0  0  0
  3  4  2  0  0  0  0
  3  2  1  0  0  0  0
  4  5  1  0  0  0  0
  5 10  1  0  0  0  0
  5  6  2  0  0  0  0
  6 21  1  0  0  0  0
  8  2  1  0  0  0  0
  9  4  1  0  0  0  0
 11  3  1  0  0  0  0
 12 11  1  0  0  0  0
 13 14  1  0  0  0  0
 13 16  1  0  0  0  0
 14 19  1  0  0  0  0
 14 20  1  0  0  0  0
 15 13  2  0  0  0  0
 17 13  2  0  0  0  0
 18 14  1  0  0  0  0
 21 22  1  0  0  0  0
 22 25  1  0  0  0  0
 22 23  1  0  0  0  0
 24 22  1  0  0  0  0
M  RAD  3  11   2  12   3  16   2
M  END
