Coordinates from ORCA-job p-CH3O-Ph-N2-X-OTf-B3LYPG-6-31G_dp-scan-d09-49-n400
 OpenBabel08281820593D

 25 24  0  0  0  0  0  0  0  0999 V2000
   -2.3768   -0.8298   -5.0730 C   0  0  0  0  0  0  0  0  0  0  0  0
   -1.2837   -0.5735   -5.8749 C   0  0  0  0  0  0  0  0  0  0  0  0
   -1.2021    0.6838   -6.5027 C   0  0  0  0  0  0  0  0  0  0  0  0
   -2.1914    1.6700   -6.3272 C   0  0  0  0  0  0  0  0  0  0  0  0
   -3.2753    1.4027   -5.5091 C   0  0  0  0  0  0  0  0  0  0  0  0
   -3.3772    0.1457   -4.8773 C   0  0  0  0  0  0  0  0  0  0  0  0
   -2.4831   -1.7844   -4.5708 H   0  0  0  0  0  0  0  0  0  0  0  0
   -0.4966   -1.2992   -6.0200 H   0  0  0  0  0  0  0  0  0  0  0  0
   -2.0975    2.6287   -6.8251 H   0  0  0  0  0  0  0  0  0  0  0  0
   -4.0315    2.1640   -5.3670 H   0  0  0  0  0  0  0  0  0  0  0  0
   -0.1583    1.0073   -7.3488 N   0  0  0  0  0  0  0  0  0  0  0  0
    0.5077    1.5005   -8.1088 N   0  0  0  0  0  0  0  0  0  0  0  0
    2.8464   -0.3760   -7.1381 S   0  0  0  0  0  0  0  0  0  0  0  0
    3.3887    0.9434   -5.9476 C   0  0  0  0  0  0  0  0  0  0  0  0
    2.5487    0.4034   -8.3787 O   0  0  0  0  0  0  0  0  0  0  0  0
    1.5985   -0.8805   -6.4934 O   0  0  0  0  0  0  0  0  0  0  0  0
    3.9846   -1.2942   -7.2209 O   0  0  0  0  0  0  0  0  0  0  0  0
    4.4715    1.5875   -6.3947 F   0  0  0  0  0  0  0  0  0  0  0  0
    2.3971    1.8550   -5.7871 F   0  0  0  0  0  0  0  0  0  0  0  0
    3.6652    0.4252   -4.7438 F   0  0  0  0  0  0  0  0  0  0  0  0
   -4.3869   -0.2156   -4.0719 O   0  0  0  0  0  0  0  0  0  0  0  0
   -5.4454    0.7087   -3.8076 C   0  0  0  0  0  0  0  0  0  0  0  0
   -6.1286    0.1870   -3.1378 H   0  0  0  0  0  0  0  0  0  0  0  0
   -5.9724    0.9798   -4.7290 H   0  0  0  0  0  0  0  0  0  0  0  0
   -5.0674    1.6109   -3.3149 H   0  0  0  0  0  0  0  0  0  0  0  0
  1  6  1  0  0  0  0
  1  7  1  0  0  0  0
  2  1  2  0  0  0  0
  3  4  2  0  0  0  0
  3  2  1  0  0  0  0
  4  5  1  0  0  0  0
  5 10  1  0  0  0  0
  5  6  2  0  0  0  0
  6 21  1  0  0  0  0
  8  2  1  0  0  0  0
  9  4  1  0  0  0  0
 11  3  1  0  0  0  0
 12 11  1  0  0  0  0
 13 16  1  0  0  0  0
 13 14  1  0  0  0  0
 14 19  1  0  0  0  0
 14 20  1  0  0  0  0
 15 13  2  0  0  0  0
 17 13  2  0  0  0  0
 18 14  1  0  0  0  0
 21 22  1  0  0  0  0
 22 25  1  0  0  0  0
 22 23  1  0  0  0  0
 24 22  1  0  0  0  0
M  RAD  3  11   2  12   3  16   2
M  END
