Coordinates from ORCA-job p-CH3O-Ph-N2-X-OTf-B3LYPG-6-31G_dp-scan-d09-49-n400
 OpenBabel08281820593D

 25 24  0  0  0  0  0  0  0  0999 V2000
   -2.1893   -0.4812   -4.8503 C   0  0  0  0  0  0  0  0  0  0  0  0
   -1.0996    0.0692   -5.4909 C   0  0  0  0  0  0  0  0  0  0  0  0
   -1.2889    1.2921   -6.1709 C   0  0  0  0  0  0  0  0  0  0  0  0
   -2.5289    1.9564   -6.2043 C   0  0  0  0  0  0  0  0  0  0  0  0
   -3.6101    1.3860   -5.5570 C   0  0  0  0  0  0  0  0  0  0  0  0
   -3.4468    0.1596   -4.8763 C   0  0  0  0  0  0  0  0  0  0  0  0
   -2.0990   -1.4168   -4.3108 H   0  0  0  0  0  0  0  0  0  0  0  0
   -0.1022   -0.3659   -5.4628 H   0  0  0  0  0  0  0  0  0  0  0  0
   -2.6317    2.8957   -6.7359 H   0  0  0  0  0  0  0  0  0  0  0  0
   -4.5678    1.8894   -5.5806 H   0  0  0  0  0  0  0  0  0  0  0  0
   -0.2463    1.8701   -6.8577 N   0  0  0  0  0  0  0  0  0  0  0  0
    0.5869    2.3052   -7.4691 N   0  0  0  0  0  0  0  0  0  0  0  0
    2.4670   -0.1912   -6.7595 S   0  0  0  0  0  0  0  0  0  0  0  0
    4.2304    0.3398   -6.5303 C   0  0  0  0  0  0  0  0  0  0  0  0
    2.0375    0.5316   -7.9989 O   0  0  0  0  0  0  0  0  0  0  0  0
    1.7904    0.3409   -5.5408 O   0  0  0  0  0  0  0  0  0  0  0  0
    2.5109   -1.6539   -6.8713 O   0  0  0  0  0  0  0  0  0  0  0  0
    4.9772   -0.0424   -7.5748 F   0  0  0  0  0  0  0  0  0  0  0  0
    4.3062    1.6770   -6.4216 F   0  0  0  0  0  0  0  0  0  0  0  0
    4.7427   -0.2039   -5.4178 F   0  0  0  0  0  0  0  0  0  0  0  0
   -4.4292   -0.4727   -4.2191 O   0  0  0  0  0  0  0  0  0  0  0  0
   -5.7404    0.0973   -4.1837 C   0  0  0  0  0  0  0  0  0  0  0  0
   -6.3443   -0.5957   -3.5989 H   0  0  0  0  0  0  0  0  0  0  0  0
   -6.1592    0.1862   -5.1921 H   0  0  0  0  0  0  0  0  0  0  0  0
   -5.7312    1.0774   -3.6947 H   0  0  0  0  0  0  0  0  0  0  0  0
  1  7  1  0  0  0  0
  2  8  1  0  0  0  0
  2  1  2  0  0  0  0
  3  2  1  0  0  0  0
  4  3  2  0  0  0  0
  4  5  1  0  0  0  0
  5  6  2  0  0  0  0
  6  1  1  0  0  0  0
  6 21  1  0  0  0  0
  9  4  1  0  0  0  0
 10  5  1  0  0  0  0
 11  3  1  0  0  0  0
 12 11  1  0  0  0  0
 13 14  1  0  0  0  0
 13 16  1  0  0  0  0
 14 19  1  0  0  0  0
 14 20  1  0  0  0  0
 15 13  2  0  0  0  0
 17 13  2  0  0  0  0
 18 14  1  0  0  0  0
 21 22  1  0  0  0  0
 22 25  1  0  0  0  0
 22 23  1  0  0  0  0
 24 22  1  0  0  0  0
M  RAD  3  11   2  12   3  16   2
M  END
