Coordinates from ORCA-job p-CH3O-Ph-N2-X-OTf-B3LYPG-6-31G_dp-scan-d09-49-n400
 OpenBabel08281820593D

 25 24  0  0  0  0  0  0  0  0999 V2000
   -2.1883   -0.4810   -4.8517 C   0  0  0  0  0  0  0  0  0  0  0  0
   -1.0991    0.0701   -5.4927 C   0  0  0  0  0  0  0  0  0  0  0  0
   -1.2894    1.2931   -6.1723 C   0  0  0  0  0  0  0  0  0  0  0  0
   -2.5297    1.9567   -6.2049 C   0  0  0  0  0  0  0  0  0  0  0  0
   -3.6103    1.3857   -5.5571 C   0  0  0  0  0  0  0  0  0  0  0  0
   -3.4461    0.1592   -4.8768 C   0  0  0  0  0  0  0  0  0  0  0  0
   -2.0971   -1.4167   -4.3124 H   0  0  0  0  0  0  0  0  0  0  0  0
   -0.1016   -0.3645   -5.4649 H   0  0  0  0  0  0  0  0  0  0  0  0
   -2.6334    2.8961   -6.7363 H   0  0  0  0  0  0  0  0  0  0  0  0
   -4.5683    1.8887   -5.5801 H   0  0  0  0  0  0  0  0  0  0  0  0
   -0.2476    1.8718   -6.8597 N   0  0  0  0  0  0  0  0  0  0  0  0
    0.5850    2.3075   -7.4715 N   0  0  0  0  0  0  0  0  0  0  0  0
    2.4654   -0.1873   -6.7581 S   0  0  0  0  0  0  0  0  0  0  0  0
    4.2310    0.3366   -6.5292 C   0  0  0  0  0  0  0  0  0  0  0  0
    2.0390    0.5354   -7.9986 O   0  0  0  0  0  0  0  0  0  0  0  0
    1.7906    0.3491   -5.5402 O   0  0  0  0  0  0  0  0  0  0  0  0
    2.5032   -1.6504   -6.8675 O   0  0  0  0  0  0  0  0  0  0  0  0
    4.9764   -0.0504   -7.5729 F   0  0  0  0  0  0  0  0  0  0  0  0
    4.3124    1.6737   -6.4226 F   0  0  0  0  0  0  0  0  0  0  0  0
    4.7407   -0.2075   -5.4157 F   0  0  0  0  0  0  0  0  0  0  0  0
   -4.4278   -0.4737   -4.2193 O   0  0  0  0  0  0  0  0  0  0  0  0
   -5.7393    0.0957   -4.1829 C   0  0  0  0  0  0  0  0  0  0  0  0
   -6.3425   -0.5977   -3.5979 H   0  0  0  0  0  0  0  0  0  0  0  0
   -6.1587    0.1845   -5.1910 H   0  0  0  0  0  0  0  0  0  0  0  0
   -5.7303    1.0757   -3.6938 H   0  0  0  0  0  0  0  0  0  0  0  0
  1  7  1  0  0  0  0
  2  8  1  0  0  0  0
  2  1  2  0  0  0  0
  3  2  1  0  0  0  0
  4  3  2  0  0  0  0
  4  5  1  0  0  0  0
  5  6  2  0  0  0  0
  6  1  1  0  0  0  0
  6 21  1  0  0  0  0
  9  4  1  0  0  0  0
 10  5  1  0  0  0  0
 11  3  1  0  0  0  0
 12 11  1  0  0  0  0
 13 14  1  0  0  0  0
 13 16  1  0  0  0  0
 14 19  1  0  0  0  0
 14 20  1  0  0  0  0
 15 13  2  0  0  0  0
 17 13  2  0  0  0  0
 18 14  1  0  0  0  0
 21 22  1  0  0  0  0
 22 25  1  0  0  0  0
 22 23  1  0  0  0  0
 24 22  1  0  0  0  0
M  RAD  3  11   2  12   3  16   2
M  END
