Coordinates from ORCA-job p-CH3O-Ph-N2-X-OTf-B3LYPG-6-31G_dp-scan-d09-49-n400
 OpenBabel08281820593D

 25 24  0  0  0  0  0  0  0  0999 V2000
   -1.6520    0.0739   -4.7932 C   0  0  0  0  0  0  0  0  0  0  0  0
   -0.7298    0.9596   -5.3589 C   0  0  0  0  0  0  0  0  0  0  0  0
   -1.3711    1.9331   -6.1679 C   0  0  0  0  0  0  0  0  0  0  0  0
   -2.7590    2.0668   -6.4276 C   0  0  0  0  0  0  0  0  0  0  0  0
   -3.6007    1.1548   -5.8342 C   0  0  0  0  0  0  0  0  0  0  0  0
   -3.0409    0.1458   -5.0052 C   0  0  0  0  0  0  0  0  0  0  0  0
   -1.3092   -0.7322   -4.1467 H   0  0  0  0  0  0  0  0  0  0  0  0
    0.9147    0.7911   -5.0764 H   0  0  0  0  0  0  0  0  0  0  0  0
   -3.1450    2.8537   -7.0696 H   0  0  0  0  0  0  0  0  0  0  0  0
   -4.6678    1.2153   -6.0075 H   0  0  0  0  0  0  0  0  0  0  0  0
   -0.5578    2.8598   -6.7714 N   0  0  0  0  0  0  0  0  0  0  0  0
    0.1293    3.6028   -7.2498 N   0  0  0  0  0  0  0  0  0  0  0  0
    2.8453    0.8695   -6.0445 S   0  0  0  0  0  0  0  0  0  0  0  0
    2.9395   -0.8484   -6.7504 C   0  0  0  0  0  0  0  0  0  0  0  0
    2.2171    1.6909   -7.0820 O   0  0  0  0  0  0  0  0  0  0  0  0
    4.1697    1.1846   -5.5364 O   0  0  0  0  0  0  0  0  0  0  0  0
    1.8546    0.6311   -4.8487 O   0  0  0  0  0  0  0  0  0  0  0  0
    1.7168   -1.2533   -7.1149 F   0  0  0  0  0  0  0  0  0  0  0  0
    3.7351   -0.8404   -7.8230 F   0  0  0  0  0  0  0  0  0  0  0  0
    3.4288   -1.6961   -5.8446 F   0  0  0  0  0  0  0  0  0  0  0  0
   -3.7843   -0.7890   -4.3816 O   0  0  0  0  0  0  0  0  0  0  0  0
   -5.2016   -0.7910   -4.5394 C   0  0  0  0  0  0  0  0  0  0  0  0
   -5.5634   -1.6299   -3.9448 H   0  0  0  0  0  0  0  0  0  0  0  0
   -5.4872   -0.9400   -5.5869 H   0  0  0  0  0  0  0  0  0  0  0  0
   -5.6468    0.1377   -4.1644 H   0  0  0  0  0  0  0  0  0  0  0  0
  1  7  1  0  0  0  0
  2  1  2  0  0  0  0
  3  2  1  0  0  0  0
  4  3  2  0  0  0  0
  4  5  1  0  0  0  0
  5  6  2  0  0  0  0
  6  1  1  0  0  0  0
  6 21  1  0  0  0  0
  8 17  1  0  0  0  0
  9  4  1  0  0  0  0
 10  5  1  0  0  0  0
 11  3  1  0  0  0  0
 12 11  1  0  0  0  0
 13 16  2  0  0  0  0
 13 17  1  0  0  0  0
 14 13  1  0  0  0  0
 14 20  1  0  0  0  0
 15 13  2  0  0  0  0
 18 14  1  0  0  0  0
 19 14  1  0  0  0  0
 22 21  1  0  0  0  0
 22 25  1  0  0  0  0
 22 23  1  0  0  0  0
 24 22  1  0  0  0  0
M  RAD  3   2   2  11   2  12   3
M  END
