Coordinates from ORCA-job p-CH3O-Ph-N2-X-OTf-B3LYPG-6-31G_dp-scan-d09-49-n400
 OpenBabel08281820593D

 25 24  0  0  0  0  0  0  0  0999 V2000
   -2.1950   -0.4834   -4.8449 C   0  0  0  0  0  0  0  0  0  0  0  0
   -1.1023    0.0630   -5.4840 C   0  0  0  0  0  0  0  0  0  0  0  0
   -1.2865    1.2860   -6.1651 C   0  0  0  0  0  0  0  0  0  0  0  0
   -2.5242    1.9543   -6.2014 C   0  0  0  0  0  0  0  0  0  0  0  0
   -3.6085    1.3877   -5.5560 C   0  0  0  0  0  0  0  0  0  0  0  0
   -3.4504    0.1613   -4.8740 C   0  0  0  0  0  0  0  0  0  0  0  0
   -2.1087   -1.4189   -4.3044 H   0  0  0  0  0  0  0  0  0  0  0  0
   -0.1059   -0.3748   -5.4549 H   0  0  0  0  0  0  0  0  0  0  0  0
   -2.6230    2.8936   -6.7338 H   0  0  0  0  0  0  0  0  0  0  0  0
   -4.5647    1.8940   -5.5821 H   0  0  0  0  0  0  0  0  0  0  0  0
   -0.2402    1.8603   -6.8494 N   0  0  0  0  0  0  0  0  0  0  0  0
    0.5963    2.2925   -7.4586 N   0  0  0  0  0  0  0  0  0  0  0  0
    2.4753   -0.2106   -6.7673 S   0  0  0  0  0  0  0  0  0  0  0  0
    4.2269    0.3564   -6.5342 C   0  0  0  0  0  0  0  0  0  0  0  0
    2.0308    0.5127   -8.0012 O   0  0  0  0  0  0  0  0  0  0  0  0
    1.7888    0.2994   -5.5445 O   0  0  0  0  0  0  0  0  0  0  0  0
    2.5506   -1.6708   -6.8905 O   0  0  0  0  0  0  0  0  0  0  0  0
    4.9814   -0.0009   -7.5819 F   0  0  0  0  0  0  0  0  0  0  0  0
    4.2736    1.6943   -6.4149 F   0  0  0  0  0  0  0  0  0  0  0  0
    4.7516   -0.1846   -5.4262 F   0  0  0  0  0  0  0  0  0  0  0  0
   -4.4362   -0.4674   -4.2184 O   0  0  0  0  0  0  0  0  0  0  0  0
   -5.7457    0.1067   -4.1862 C   0  0  0  0  0  0  0  0  0  0  0  0
   -6.3531   -0.5841   -3.6024 H   0  0  0  0  0  0  0  0  0  0  0  0
   -6.1619    0.1963   -5.1956 H   0  0  0  0  0  0  0  0  0  0  0  0
   -5.7346    1.0871   -3.6978 H   0  0  0  0  0  0  0  0  0  0  0  0
  1  7  1  0  0  0  0
  2  8  1  0  0  0  0
  2  1  2  0  0  0  0
  3  2  1  0  0  0  0
  4  3  2  0  0  0  0
  4  5  1  0  0  0  0
  5  6  2  0  0  0  0
  6  1  1  0  0  0  0
  6 21  1  0  0  0  0
  9  4  1  0  0  0  0
 10  5  1  0  0  0  0
 11  3  1  0  0  0  0
 12 11  1  0  0  0  0
 13 14  1  0  0  0  0
 13 16  1  0  0  0  0
 14 19  1  0  0  0  0
 14 20  1  0  0  0  0
 15 13  2  0  0  0  0
 17 13  2  0  0  0  0
 18 14  1  0  0  0  0
 21 22  1  0  0  0  0
 22 25  1  0  0  0  0
 22 23  1  0  0  0  0
 24 22  1  0  0  0  0
M  RAD  3  11   2  12   3  16   2
M  END
