Coordinates from ORCA-job p-CH3O-Ph-N2-X-OTf-B3LYPG-6-31G_dp-scan-d09-49-n400
 OpenBabel08281820593D

 25 24  0  0  0  0  0  0  0  0999 V2000
   -2.3479   -0.7986   -5.0467 C   0  0  0  0  0  0  0  0  0  0  0  0
   -1.2566   -0.5234   -5.8446 C   0  0  0  0  0  0  0  0  0  0  0  0
   -1.2051    0.7281   -6.4875 C   0  0  0  0  0  0  0  0  0  0  0  0
   -2.2213    1.6903   -6.3327 C   0  0  0  0  0  0  0  0  0  0  0  0
   -3.3041    1.4032   -5.5200 C   0  0  0  0  0  0  0  0  0  0  0  0
   -3.3761    0.1518   -4.8723 C   0  0  0  0  0  0  0  0  0  0  0  0
   -2.4321   -1.7488   -4.5322 H   0  0  0  0  0  0  0  0  0  0  0  0
   -0.4420   -1.2218   -5.9784 H   0  0  0  0  0  0  0  0  0  0  0  0
   -2.1497    2.6448   -6.8424 H   0  0  0  0  0  0  0  0  0  0  0  0
   -4.0825    2.1445   -5.3937 H   0  0  0  0  0  0  0  0  0  0  0  0
   -0.1622    1.0660   -7.3281 N   0  0  0  0  0  0  0  0  0  0  0  0
    0.5162    1.5548   -8.0795 N   0  0  0  0  0  0  0  0  0  0  0  0
    2.8178   -0.3913   -7.1354 S   0  0  0  0  0  0  0  0  0  0  0  0
    3.4390    0.9112   -5.9655 C   0  0  0  0  0  0  0  0  0  0  0  0
    2.5281    0.3919   -8.3744 O   0  0  0  0  0  0  0  0  0  0  0  0
    1.5635   -0.8387   -6.4607 O   0  0  0  0  0  0  0  0  0  0  0  0
    3.9077   -1.3643   -7.2322 O   0  0  0  0  0  0  0  0  0  0  0  0
    4.5384    1.5062   -6.4393 F   0  0  0  0  0  0  0  0  0  0  0  0
    2.4892    1.8628   -5.7929 F   0  0  0  0  0  0  0  0  0  0  0  0
    3.7184    0.3893   -4.7639 F   0  0  0  0  0  0  0  0  0  0  0  0
   -4.3822   -0.2262   -4.0699 O   0  0  0  0  0  0  0  0  0  0  0  0
   -5.4677    0.6718   -3.8259 C   0  0  0  0  0  0  0  0  0  0  0  0
   -6.1410    0.1406   -3.1537 H   0  0  0  0  0  0  0  0  0  0  0  0
   -5.9952    0.9154   -4.7547 H   0  0  0  0  0  0  0  0  0  0  0  0
   -5.1183    1.5908   -3.3432 H   0  0  0  0  0  0  0  0  0  0  0  0
  1  6  1  0  0  0  0
  1  7  1  0  0  0  0
  2  1  2  0  0  0  0
  3  4  2  0  0  0  0
  3  2  1  0  0  0  0
  4  5  1  0  0  0  0
  5 10  1  0  0  0  0
  5  6  2  0  0  0  0
  6 21  1  0  0  0  0
  8  2  1  0  0  0  0
  9  4  1  0  0  0  0
 11  3  1  0  0  0  0
 12 11  1  0  0  0  0
 13 16  1  0  0  0  0
 13 14  1  0  0  0  0
 14 19  1  0  0  0  0
 14 20  1  0  0  0  0
 15 13  2  0  0  0  0
 17 13  2  0  0  0  0
 18 14  1  0  0  0  0
 21 22  1  0  0  0  0
 22 25  1  0  0  0  0
 22 23  1  0  0  0  0
 24 22  1  0  0  0  0
M  RAD  3  11   2  12   3  16   2
M  END
