Coordinates from ORCA-job p-CH3O-Ph-N2-X-OTf-B3LYPG-6-31G_dp-scan-d09-49-n400
 OpenBabel08281820593D

 25 24  0  0  0  0  0  0  0  0999 V2000
   -1.6750    0.0728   -4.7972 C   0  0  0  0  0  0  0  0  0  0  0  0
   -0.7468    0.9511   -5.3719 C   0  0  0  0  0  0  0  0  0  0  0  0
   -1.3971    1.9148   -6.1866 C   0  0  0  0  0  0  0  0  0  0  0  0
   -2.7856    2.0510   -6.4465 C   0  0  0  0  0  0  0  0  0  0  0  0
   -3.6266    1.1462   -5.8423 C   0  0  0  0  0  0  0  0  0  0  0  0
   -3.0638    0.1446   -5.0053 C   0  0  0  0  0  0  0  0  0  0  0  0
   -1.3360   -0.7289   -4.1425 H   0  0  0  0  0  0  0  0  0  0  0  0
    1.0435    0.7698   -5.0411 H   0  0  0  0  0  0  0  0  0  0  0  0
   -3.1719    2.8328   -7.0949 H   0  0  0  0  0  0  0  0  0  0  0  0
   -4.6942    1.2062   -6.0122 H   0  0  0  0  0  0  0  0  0  0  0  0
   -0.5827    2.8344   -6.8008 N   0  0  0  0  0  0  0  0  0  0  0  0
    0.1083    3.5703   -7.2856 N   0  0  0  0  0  0  0  0  0  0  0  0
    2.9044    0.8754   -6.0223 S   0  0  0  0  0  0  0  0  0  0  0  0
    2.9512   -0.8266   -6.7734 C   0  0  0  0  0  0  0  0  0  0  0  0
    2.2958    1.7452   -7.0271 O   0  0  0  0  0  0  0  0  0  0  0  0
    4.2274    1.1364   -5.4861 O   0  0  0  0  0  0  0  0  0  0  0  0
    1.9040    0.6237   -4.8215 O   0  0  0  0  0  0  0  0  0  0  0  0
    1.7191   -1.1861   -7.1477 F   0  0  0  0  0  0  0  0  0  0  0  0
    3.7483   -0.8062   -7.8437 F   0  0  0  0  0  0  0  0  0  0  0  0
    3.4178   -1.7079   -5.8897 F   0  0  0  0  0  0  0  0  0  0  0  0
   -3.8083   -0.7836   -4.3700 O   0  0  0  0  0  0  0  0  0  0  0  0
   -5.2255   -0.7823   -4.5220 C   0  0  0  0  0  0  0  0  0  0  0  0
   -5.5883   -1.6143   -3.9183 H   0  0  0  0  0  0  0  0  0  0  0  0
   -5.5168   -0.9400   -5.5669 H   0  0  0  0  0  0  0  0  0  0  0  0
   -5.6669    0.1513   -4.1542 H   0  0  0  0  0  0  0  0  0  0  0  0
  1  7  1  0  0  0  0
  2  1  2  0  0  0  0
  3  2  1  0  0  0  0
  4  3  2  0  0  0  0
  4  5  1  0  0  0  0
  5  6  2  0  0  0  0
  6  1  1  0  0  0  0
  6 21  1  0  0  0  0
  8 17  1  0  0  0  0
  9  4  1  0  0  0  0
 10  5  1  0  0  0  0
 11  3  1  0  0  0  0
 12 11  1  0  0  0  0
 13 16  2  0  0  0  0
 13 17  1  0  0  0  0
 14 13  1  0  0  0  0
 14 20  1  0  0  0  0
 15 13  2  0  0  0  0
 18 14  1  0  0  0  0
 19 14  1  0  0  0  0
 22 21  1  0  0  0  0
 22 25  1  0  0  0  0
 22 23  1  0  0  0  0
 24 22  1  0  0  0  0
M  RAD  3   2   2  11   2  12   3
M  END
