Coordinates from ORCA-job p-CH3O-Ph-N2-X-OTf-B3LYPG-6-31G_dp-scan-d09-49-n400
 OpenBabel08281820593D

 25 24  0  0  0  0  0  0  0  0999 V2000
   -1.7470   -0.0611   -4.7957 C   0  0  0  0  0  0  0  0  0  0  0  0
   -0.8127    0.7833   -5.3657 C   0  0  0  0  0  0  0  0  0  0  0  0
   -1.3367    1.8461   -6.1385 C   0  0  0  0  0  0  0  0  0  0  0  0
   -2.7132    2.0773   -6.3430 C   0  0  0  0  0  0  0  0  0  0  0  0
   -3.6134    1.2097   -5.7602 C   0  0  0  0  0  0  0  0  0  0  0  0
   -3.1322    0.1302   -4.9792 C   0  0  0  0  0  0  0  0  0  0  0  0
   -1.4232   -0.9014   -4.1902 H   0  0  0  0  0  0  0  0  0  0  0  0
    0.3273    0.6305   -5.2234 H   0  0  0  0  0  0  0  0  0  0  0  0
   -3.0521    2.9121   -6.9476 H   0  0  0  0  0  0  0  0  0  0  0  0
   -4.6744    1.3651   -5.9090 H   0  0  0  0  0  0  0  0  0  0  0  0
   -0.4551    2.7168   -6.7249 N   0  0  0  0  0  0  0  0  0  0  0  0
    0.3150    3.3809   -7.1876 N   0  0  0  0  0  0  0  0  0  0  0  0
    2.6738    0.8385   -6.1246 S   0  0  0  0  0  0  0  0  0  0  0  0
    3.3671   -0.7686   -6.7441 C   0  0  0  0  0  0  0  0  0  0  0  0
    1.9043    1.3599   -7.2866 O   0  0  0  0  0  0  0  0  0  0  0  0
    3.8336    1.6225   -5.6929 O   0  0  0  0  0  0  0  0  0  0  0  0
    1.7546    0.3935   -5.0178 O   0  0  0  0  0  0  0  0  0  0  0  0
    2.3763   -1.5786   -7.1556 F   0  0  0  0  0  0  0  0  0  0  0  0
    4.1935   -0.5545   -7.7764 F   0  0  0  0  0  0  0  0  0  0  0  0
    4.0471   -1.3937   -5.7739 F   0  0  0  0  0  0  0  0  0  0  0  0
   -3.9272   -0.7619   -4.3731 O   0  0  0  0  0  0  0  0  0  0  0  0
   -5.3471   -0.6548   -4.5009 C   0  0  0  0  0  0  0  0  0  0  0  0
   -5.7555   -1.4870   -3.9286 H   0  0  0  0  0  0  0  0  0  0  0  0
   -5.6572   -0.7444   -5.5474 H   0  0  0  0  0  0  0  0  0  0  0  0
   -5.7113    0.2899   -4.0830 H   0  0  0  0  0  0  0  0  0  0  0  0
  1  7  1  0  0  0  0
  2  8  1  0  0  0  0
  2  1  2  0  0  0  0
  3  2  1  0  0  0  0
  4  3  2  0  0  0  0
  4  5  1  0  0  0  0
  5  6  2  0  0  0  0
  6  1  1  0  0  0  0
  6 21  1  0  0  0  0
  9  4  1  0  0  0  0
 10  5  1  0  0  0  0
 11  3  1  0  0  0  0
 12 11  1  0  0  0  0
 13 16  2  0  0  0  0
 13 17  1  0  0  0  0
 14 13  1  0  0  0  0
 14 20  1  0  0  0  0
 15 13  2  0  0  0  0
 18 14  1  0  0  0  0
 19 14  1  0  0  0  0
 22 21  1  0  0  0  0
 22 25  1  0  0  0  0
 22 23  1  0  0  0  0
 24 22  1  0  0  0  0
M  RAD  3  11   2  12   3  17   2
M  END
