Coordinates from ORCA-job p-CH3O-Ph-N2-X-OTf-B3LYPG-6-31G_dp-scan-d09-49-n400
 OpenBabel08281820593D

 25 24  0  0  0  0  0  0  0  0999 V2000
   -2.1988   -0.4857   -4.8430 C   0  0  0  0  0  0  0  0  0  0  0  0
   -1.1044    0.0581   -5.4815 C   0  0  0  0  0  0  0  0  0  0  0  0
   -1.2852    1.2814   -6.1628 C   0  0  0  0  0  0  0  0  0  0  0  0
   -2.5212    1.9528   -6.1999 C   0  0  0  0  0  0  0  0  0  0  0  0
   -3.6073    1.3888   -5.5553 C   0  0  0  0  0  0  0  0  0  0  0  0
   -3.4526    0.1620   -4.8730 C   0  0  0  0  0  0  0  0  0  0  0  0
   -2.1152   -1.4213   -4.3023 H   0  0  0  0  0  0  0  0  0  0  0  0
   -0.1088   -0.3821   -5.4524 H   0  0  0  0  0  0  0  0  0  0  0  0
   -2.6174    2.8923   -6.7324 H   0  0  0  0  0  0  0  0  0  0  0  0
   -4.5622    1.8973   -5.5821 H   0  0  0  0  0  0  0  0  0  0  0  0
   -0.2367    1.8532   -6.8458 N   0  0  0  0  0  0  0  0  0  0  0  0
    0.6015    2.2837   -7.4540 N   0  0  0  0  0  0  0  0  0  0  0  0
    2.4806   -0.2222   -6.7724 S   0  0  0  0  0  0  0  0  0  0  0  0
    4.2243    0.3674   -6.5351 C   0  0  0  0  0  0  0  0  0  0  0  0
    2.0279    0.5013   -8.0032 O   0  0  0  0  0  0  0  0  0  0  0  0
    1.7871    0.2738   -5.5477 O   0  0  0  0  0  0  0  0  0  0  0  0
    2.5758   -1.6804   -6.9027 O   0  0  0  0  0  0  0  0  0  0  0  0
    4.9844    0.0256   -7.5839 F   0  0  0  0  0  0  0  0  0  0  0  0
    4.2526    1.7053   -6.4094 F   0  0  0  0  0  0  0  0  0  0  0  0
    4.7556   -0.1716   -5.4293 F   0  0  0  0  0  0  0  0  0  0  0  0
   -4.4404   -0.4641   -4.2179 O   0  0  0  0  0  0  0  0  0  0  0  0
   -5.7484    0.1132   -4.1865 C   0  0  0  0  0  0  0  0  0  0  0  0
   -6.3579   -0.5760   -3.6031 H   0  0  0  0  0  0  0  0  0  0  0  0
   -6.1638    0.2039   -5.1962 H   0  0  0  0  0  0  0  0  0  0  0  0
   -5.7352    1.0936   -3.6982 H   0  0  0  0  0  0  0  0  0  0  0  0
  1  7  1  0  0  0  0
  2  8  1  0  0  0  0
  2  1  2  0  0  0  0
  3  2  1  0  0  0  0
  4  3  2  0  0  0  0
  4  5  1  0  0  0  0
  5  6  2  0  0  0  0
  6  1  1  0  0  0  0
  6 21  1  0  0  0  0
  9  4  1  0  0  0  0
 10  5  1  0  0  0  0
 11  3  1  0  0  0  0
 12 11  1  0  0  0  0
 13 14  1  0  0  0  0
 13 16  1  0  0  0  0
 14 19  1  0  0  0  0
 14 20  1  0  0  0  0
 15 13  2  0  0  0  0
 17 13  2  0  0  0  0
 18 14  1  0  0  0  0
 21 22  1  0  0  0  0
 22 25  1  0  0  0  0
 22 23  1  0  0  0  0
 24 22  1  0  0  0  0
M  RAD  3  11   2  12   3  16   2
M  END
