Coordinates from ORCA-job p-CH3O-Ph-N2-X-OTf-B3LYPG-6-31G_dp-scan-d09-49-n400
 OpenBabel08281820593D

 25 24  0  0  0  0  0  0  0  0999 V2000
   -1.7756   -0.0788   -4.7978 C   0  0  0  0  0  0  0  0  0  0  0  0
   -0.8381    0.7553   -5.3754 C   0  0  0  0  0  0  0  0  0  0  0  0
   -1.3500    1.8235   -6.1483 C   0  0  0  0  0  0  0  0  0  0  0  0
   -2.7243    2.0690   -6.3441 C   0  0  0  0  0  0  0  0  0  0  0  0
   -3.6316    1.2119   -5.7551 C   0  0  0  0  0  0  0  0  0  0  0  0
   -3.1597    0.1280   -4.9755 C   0  0  0  0  0  0  0  0  0  0  0  0
   -1.4563   -0.9202   -4.1918 H   0  0  0  0  0  0  0  0  0  0  0  0
    0.2834    0.5992   -5.2365 H   0  0  0  0  0  0  0  0  0  0  0  0
   -3.0571    2.9067   -6.9478 H   0  0  0  0  0  0  0  0  0  0  0  0
   -4.6914    1.3797   -5.8984 H   0  0  0  0  0  0  0  0  0  0  0  0
   -0.4572    2.6782   -6.7419 N   0  0  0  0  0  0  0  0  0  0  0  0
    0.3418    3.3077   -7.2053 N   0  0  0  0  0  0  0  0  0  0  0  0
    2.6854    0.8368   -6.1216 S   0  0  0  0  0  0  0  0  0  0  0  0
    3.4414   -0.7388   -6.7493 C   0  0  0  0  0  0  0  0  0  0  0  0
    1.9053    1.3332   -7.2909 O   0  0  0  0  0  0  0  0  0  0  0  0
    3.8143    1.6645   -5.6876 O   0  0  0  0  0  0  0  0  0  0  0  0
    1.7804    0.3559   -5.0232 O   0  0  0  0  0  0  0  0  0  0  0  0
    2.4841   -1.5820   -7.1730 F   0  0  0  0  0  0  0  0  0  0  0  0
    4.2661   -0.4873   -7.7747 F   0  0  0  0  0  0  0  0  0  0  0  0
    4.1381   -1.3457   -5.7792 F   0  0  0  0  0  0  0  0  0  0  0  0
   -3.9609   -0.7544   -4.3641 O   0  0  0  0  0  0  0  0  0  0  0  0
   -5.3804   -0.6318   -4.4845 C   0  0  0  0  0  0  0  0  0  0  0  0
   -5.7949   -1.4588   -3.9092 H   0  0  0  0  0  0  0  0  0  0  0  0
   -5.6968   -0.7188   -5.5293 H   0  0  0  0  0  0  0  0  0  0  0  0
   -5.7318    0.3174   -4.0655 H   0  0  0  0  0  0  0  0  0  0  0  0
  1  7  1  0  0  0  0
  2  8  1  0  0  0  0
  2  1  2  0  0  0  0
  3  2  1  0  0  0  0
  4  3  2  0  0  0  0
  4  5  1  0  0  0  0
  5  6  2  0  0  0  0
  6  1  1  0  0  0  0
  6 21  1  0  0  0  0
  9  4  1  0  0  0  0
 10  5  1  0  0  0  0
 11  3  1  0  0  0  0
 12 11  1  0  0  0  0
 13 16  2  0  0  0  0
 13 17  1  0  0  0  0
 14 13  1  0  0  0  0
 14 20  1  0  0  0  0
 15 13  2  0  0  0  0
 18 14  1  0  0  0  0
 19 14  1  0  0  0  0
 22 21  1  0  0  0  0
 22 25  1  0  0  0  0
 22 23  1  0  0  0  0
 24 22  1  0  0  0  0
M  RAD  3  11   2  12   3  17   2
M  END
