Coordinates from ORCA-job p-CH3O-Ph-N2-X-OTf-B3LYPG-6-31G_dp-scan-d09-49-n400
 OpenBabel08281820593D

 25 24  0  0  0  0  0  0  0  0999 V2000
   -2.3376   -0.7560   -4.9904 C   0  0  0  0  0  0  0  0  0  0  0  0
   -1.2336   -0.4471   -5.7580 C   0  0  0  0  0  0  0  0  0  0  0  0
   -1.2136    0.7980   -6.4159 C   0  0  0  0  0  0  0  0  0  0  0  0
   -2.2714    1.7208   -6.3063 C   0  0  0  0  0  0  0  0  0  0  0  0
   -3.3679    1.3984   -5.5261 C   0  0  0  0  0  0  0  0  0  0  0  0
   -3.4090    0.1534   -4.8630 C   0  0  0  0  0  0  0  0  0  0  0  0
   -2.3995   -1.7016   -4.4645 H   0  0  0  0  0  0  0  0  0  0  0  0
   -0.3811   -1.1070   -5.8590 H   0  0  0  0  0  0  0  0  0  0  0  0
   -2.2222    2.6710   -6.8266 H   0  0  0  0  0  0  0  0  0  0  0  0
   -4.1808    2.1074   -5.4364 H   0  0  0  0  0  0  0  0  0  0  0  0
   -0.1570    1.1669   -7.2257 N   0  0  0  0  0  0  0  0  0  0  0  0
    0.5354    1.6633   -7.9587 N   0  0  0  0  0  0  0  0  0  0  0  0
    2.7790   -0.4031   -7.1251 S   0  0  0  0  0  0  0  0  0  0  0  0
    3.6109    0.8657   -6.0547 C   0  0  0  0  0  0  0  0  0  0  0  0
    2.4571    0.3675   -8.3631 O   0  0  0  0  0  0  0  0  0  0  0  0
    1.5509   -0.7149   -6.3349 O   0  0  0  0  0  0  0  0  0  0  0  0
    3.7566   -1.4819   -7.2730 O   0  0  0  0  0  0  0  0  0  0  0  0
    4.7187    1.3390   -6.6353 F   0  0  0  0  0  0  0  0  0  0  0  0
    2.7713    1.9051   -5.8422 F   0  0  0  0  0  0  0  0  0  0  0  0
    3.9392    0.3507   -4.8624 F   0  0  0  0  0  0  0  0  0  0  0  0
   -4.4242   -0.2547   -4.0872 O   0  0  0  0  0  0  0  0  0  0  0  0
   -5.5512    0.6024   -3.8883 C   0  0  0  0  0  0  0  0  0  0  0  0
   -6.2229    0.0537   -3.2286 H   0  0  0  0  0  0  0  0  0  0  0  0
   -6.0598    0.8124   -4.8356 H   0  0  0  0  0  0  0  0  0  0  0  0
   -5.2532    1.5410   -3.4089 H   0  0  0  0  0  0  0  0  0  0  0  0
  1  6  1  0  0  0  0
  1  7  1  0  0  0  0
  2  1  2  0  0  0  0
  3  4  2  0  0  0  0
  3  2  1  0  0  0  0
  4  5  1  0  0  0  0
  5 10  1  0  0  0  0
  5  6  2  0  0  0  0
  6 21  1  0  0  0  0
  8  2  1  0  0  0  0
  9  4  1  0  0  0  0
 11  3  1  0  0  0  0
 12 11  1  0  0  0  0
 13 16  1  0  0  0  0
 13 14  1  0  0  0  0
 14 19  1  0  0  0  0
 14 20  1  0  0  0  0
 15 13  2  0  0  0  0
 17 13  2  0  0  0  0
 18 14  1  0  0  0  0
 21 22  1  0  0  0  0
 22 25  1  0  0  0  0
 22 23  1  0  0  0  0
 24 22  1  0  0  0  0
M  RAD  3  11   2  12   3  16   2
M  END
