Coordinates from ORCA-job p-CH3O-Ph-N2-X-OTf-B3LYPG-6-31G_dp-scan-d09-49-n400
 OpenBabel08281820593D

 25 24  0  0  0  0  0  0  0  0999 V2000
   -2.2287   -0.6471   -5.1743 C   0  0  0  0  0  0  0  0  0  0  0  0
   -1.1812   -0.1308   -5.9065 C   0  0  0  0  0  0  0  0  0  0  0  0
   -1.3335    1.1652   -6.4474 C   0  0  0  0  0  0  0  0  0  0  0  0
   -2.4983    1.9293   -6.2527 C   0  0  0  0  0  0  0  0  0  0  0  0
   -3.5343    1.3989   -5.5044 C   0  0  0  0  0  0  0  0  0  0  0  0
   -3.4059    0.1026   -4.9615 C   0  0  0  0  0  0  0  0  0  0  0  0
   -2.1616   -1.6362   -4.7371 H   0  0  0  0  0  0  0  0  0  0  0  0
   -0.2531   -0.6713   -6.0406 H   0  0  0  0  0  0  0  0  0  0  0  0
   -2.5768    2.9209   -6.6838 H   0  0  0  0  0  0  0  0  0  0  0  0
   -4.4296    1.9860   -5.3472 H   0  0  0  0  0  0  0  0  0  0  0  0
   -0.3458    1.7190   -7.2265 N   0  0  0  0  0  0  0  0  0  0  0  0
    0.4216    2.1617   -7.9137 N   0  0  0  0  0  0  0  0  0  0  0  0
    2.4139   -0.0126   -6.7058 S   0  0  0  0  0  0  0  0  0  0  0  0
    4.1584    0.3958   -6.2213 C   0  0  0  0  0  0  0  0  0  0  0  0
    2.2439    0.6494   -8.0372 O   0  0  0  0  0  0  0  0  0  0  0  0
    1.5894    0.6350   -5.6465 O   0  0  0  0  0  0  0  0  0  0  0  0
    2.3531   -1.4832   -6.7270 O   0  0  0  0  0  0  0  0  0  0  0  0
    5.0241   -0.1094   -7.1100 F   0  0  0  0  0  0  0  0  0  0  0  0
    4.3312    1.7260   -6.1673 F   0  0  0  0  0  0  0  0  0  0  0  0
    4.4378   -0.1159   -5.0140 F   0  0  0  0  0  0  0  0  0  0  0  0
   -4.3491   -0.5038   -4.2275 O   0  0  0  0  0  0  0  0  0  0  0  0
   -5.5733    0.1780   -3.9426 C   0  0  0  0  0  0  0  0  0  0  0  0
   -6.1584   -0.5137   -3.3369 H   0  0  0  0  0  0  0  0  0  0  0  0
   -6.1196    0.4098   -4.8633 H   0  0  0  0  0  0  0  0  0  0  0  0
   -5.3900    1.0967   -3.3750 H   0  0  0  0  0  0  0  0  0  0  0  0
  1  6  1  0  0  0  0
  1  7  1  0  0  0  0
  2  1  2  0  0  0  0
  3  4  2  0  0  0  0
  3  2  1  0  0  0  0
  4  5  1  0  0  0  0
  5 10  1  0  0  0  0
  5  6  2  0  0  0  0
  6 21  1  0  0  0  0
  8  2  1  0  0  0  0
  9  4  1  0  0  0  0
 11  3  1  0  0  0  0
 12 11  1  0  0  0  0
 13 14  1  0  0  0  0
 13 16  1  0  0  0  0
 14 19  1  0  0  0  0
 14 20  1  0  0  0  0
 15 13  2  0  0  0  0
 17 13  2  0  0  0  0
 18 14  1  0  0  0  0
 21 22  1  0  0  0  0
 22 25  1  0  0  0  0
 22 23  1  0  0  0  0
 24 22  1  0  0  0  0
M  RAD  3  11   2  12   3  16   2
M  END
