Coordinates from ORCA-job p-CH3O-Ph-N2-X-OTf-B3LYPG-6-31G_dp-scan-d09-49-n400
 OpenBabel08281820593D

 25 24  0  0  0  0  0  0  0  0999 V2000
   -2.1822   -0.4803   -4.8609 C   0  0  0  0  0  0  0  0  0  0  0  0
   -1.0967    0.0748   -5.5045 C   0  0  0  0  0  0  0  0  0  0  0  0
   -1.2924    1.2986   -6.1814 C   0  0  0  0  0  0  0  0  0  0  0  0
   -2.5347    1.9587   -6.2085 C   0  0  0  0  0  0  0  0  0  0  0  0
   -3.6115    1.3840   -5.5577 C   0  0  0  0  0  0  0  0  0  0  0  0
   -3.4417    0.1567   -4.8802 C   0  0  0  0  0  0  0  0  0  0  0  0
   -2.0866   -1.4168   -4.3238 H   0  0  0  0  0  0  0  0  0  0  0  0
   -0.0986   -0.3578   -5.4792 H   0  0  0  0  0  0  0  0  0  0  0  0
   -2.6427    2.8987   -6.7380 H   0  0  0  0  0  0  0  0  0  0  0  0
   -4.5708    1.8847   -5.5762 H   0  0  0  0  0  0  0  0  0  0  0  0
   -0.2552    1.8811   -6.8724 N   0  0  0  0  0  0  0  0  0  0  0  0
    0.5736    2.3200   -7.4870 N   0  0  0  0  0  0  0  0  0  0  0  0
    2.4564   -0.1641   -6.7492 S   0  0  0  0  0  0  0  0  0  0  0  0
    4.2338    0.3187   -6.5218 C   0  0  0  0  0  0  0  0  0  0  0  0
    2.0486    0.5569   -7.9969 O   0  0  0  0  0  0  0  0  0  0  0  0
    1.7913    0.3973   -5.5375 O   0  0  0  0  0  0  0  0  0  0  0  0
    2.4586   -1.6290   -6.8451 O   0  0  0  0  0  0  0  0  0  0  0  0
    4.9713   -0.0971   -7.5600 F   0  0  0  0  0  0  0  0  0  0  0  0
    4.3480    1.6541   -6.4279 F   0  0  0  0  0  0  0  0  0  0  0  0
    4.7274   -0.2271   -5.4018 F   0  0  0  0  0  0  0  0  0  0  0  0
   -4.4193   -0.4799   -4.2203 O   0  0  0  0  0  0  0  0  0  0  0  0
   -5.7320    0.0862   -4.1776 C   0  0  0  0  0  0  0  0  0  0  0  0
   -6.3311   -0.6095   -3.5911 H   0  0  0  0  0  0  0  0  0  0  0  0
   -6.1558    0.1755   -5.1839 H   0  0  0  0  0  0  0  0  0  0  0  0
   -5.7233    1.0656   -3.6871 H   0  0  0  0  0  0  0  0  0  0  0  0
  1  7  1  0  0  0  0
  2  8  1  0  0  0  0
  2  1  2  0  0  0  0
  3  2  1  0  0  0  0
  4  3  2  0  0  0  0
  4  5  1  0  0  0  0
  5  6  2  0  0  0  0
  6  1  1  0  0  0  0
  6 21  1  0  0  0  0
  9  4  1  0  0  0  0
 10  5  1  0  0  0  0
 11  3  1  0  0  0  0
 12 11  1  0  0  0  0
 13 14  1  0  0  0  0
 13 16  1  0  0  0  0
 14 19  1  0  0  0  0
 14 20  1  0  0  0  0
 15 13  2  0  0  0  0
 17 13  2  0  0  0  0
 18 14  1  0  0  0  0
 21 22  1  0  0  0  0
 22 25  1  0  0  0  0
 22 23  1  0  0  0  0
 24 22  1  0  0  0  0
M  RAD  3  11   2  12   3  16   2
M  END
