Coordinates from ORCA-job p-CH3O-Ph-N2-X-OTf-B3LYPG-6-31G_dp-scan-d09-49-n400
 OpenBabel08281820593D

 25 24  0  0  0  0  0  0  0  0999 V2000
   -2.2709   -0.5700   -4.8916 C   0  0  0  0  0  0  0  0  0  0  0  0
   -1.1437   -0.0859   -5.5215 C   0  0  0  0  0  0  0  0  0  0  0  0
   -1.2366    1.1738   -6.1520 C   0  0  0  0  0  0  0  0  0  0  0  0
   -2.4168    1.9390   -6.1479 C   0  0  0  0  0  0  0  0  0  0  0  0
   -3.5384    1.4324   -5.5158 C   0  0  0  0  0  0  0  0  0  0  0  0
   -3.4724    0.1710   -4.8844 C   0  0  0  0  0  0  0  0  0  0  0  0
   -2.2544   -1.5293   -4.3876 H   0  0  0  0  0  0  0  0  0  0  0  0
   -0.1855   -0.6028   -5.5259 H   0  0  0  0  0  0  0  0  0  0  0  0
   -2.4445    2.9045   -6.6402 H   0  0  0  0  0  0  0  0  0  0  0  0
   -4.4524    2.0119   -5.5129 H   0  0  0  0  0  0  0  0  0  0  0  0
   -0.1457    1.6878   -6.8127 N   0  0  0  0  0  0  0  0  0  0  0  0
    0.7547    2.0307   -7.3896 N   0  0  0  0  0  0  0  0  0  0  0  0
    2.5917   -0.4796   -6.8119 S   0  0  0  0  0  0  0  0  0  0  0  0
    4.0504    0.6332   -6.5286 C   0  0  0  0  0  0  0  0  0  0  0  0
    1.9352    0.1333   -8.0136 O   0  0  0  0  0  0  0  0  0  0  0  0
    1.7854   -0.2777   -5.5743 O   0  0  0  0  0  0  0  0  0  0  0  0
    3.1568   -1.8149   -7.0222 O   0  0  0  0  0  0  0  0  0  0  0  0
    4.8823    0.6065   -7.5769 F   0  0  0  0  0  0  0  0  0  0  0  0
    3.6338    1.9049   -6.3546 F   0  0  0  0  0  0  0  0  0  0  0  0
    4.7290    0.2632   -5.4347 F   0  0  0  0  0  0  0  0  0  0  0  0
   -4.5008   -0.4056   -4.2460 O   0  0  0  0  0  0  0  0  0  0  0  0
   -5.7609    0.2673   -4.1782 C   0  0  0  0  0  0  0  0  0  0  0  0
   -6.4187   -0.4001   -3.6224 H   0  0  0  0  0  0  0  0  0  0  0  0
   -6.1722    0.4365   -5.1792 H   0  0  0  0  0  0  0  0  0  0  0  0
   -5.6709    1.2201   -3.6455 H   0  0  0  0  0  0  0  0  0  0  0  0
  1  6  1  0  0  0  0
  1  7  1  0  0  0  0
  2  1  2  0  0  0  0
  3  4  2  0  0  0  0
  3  2  1  0  0  0  0
  4  5  1  0  0  0  0
  5 10  1  0  0  0  0
  5  6  2  0  0  0  0
  6 21  1  0  0  0  0
  8  2  1  0  0  0  0
  9  4  1  0  0  0  0
 11  3  1  0  0  0  0
 12 11  1  0  0  0  0
 13 14  1  0  0  0  0
 13 16  1  0  0  0  0
 14 19  1  0  0  0  0
 14 20  1  0  0  0  0
 15 13  2  0  0  0  0
 17 13  2  0  0  0  0
 18 14  1  0  0  0  0
 21 22  1  0  0  0  0
 22 25  1  0  0  0  0
 22 23  1  0  0  0  0
 24 22  1  0  0  0  0
M  RAD  3  11   2  12   3  16   2
M  END
