Coordinates from ORCA-job p-CH3O-Ph-N2-X-OTf-B3LYPG-6-31G_dp-scan-d09-49-n400
 OpenBabel08281820593D

 25 24  0  0  0  0  0  0  0  0999 V2000
   -2.2516   -0.5491   -4.8891 C   0  0  0  0  0  0  0  0  0  0  0  0
   -1.1288   -0.0426   -5.5092 C   0  0  0  0  0  0  0  0  0  0  0  0
   -1.2414    1.2165   -6.1382 C   0  0  0  0  0  0  0  0  0  0  0  0
   -2.4358    1.9589   -6.1426 C   0  0  0  0  0  0  0  0  0  0  0  0
   -3.5525    1.4296   -5.5205 C   0  0  0  0  0  0  0  0  0  0  0  0
   -3.4671    0.1688   -4.8902 C   0  0  0  0  0  0  0  0  0  0  0  0
   -2.2205   -1.5085   -4.3858 H   0  0  0  0  0  0  0  0  0  0  0  0
   -0.1592   -0.5390   -5.5033 H   0  0  0  0  0  0  0  0  0  0  0  0
   -2.4781    2.9243   -6.6339 H   0  0  0  0  0  0  0  0  0  0  0  0
   -4.4776    1.9913   -5.5240 H   0  0  0  0  0  0  0  0  0  0  0  0
   -0.1542    1.7509   -6.7887 N   0  0  0  0  0  0  0  0  0  0  0  0
    0.7527    2.0921   -7.3558 N   0  0  0  0  0  0  0  0  0  0  0  0
    2.5522   -0.4437   -6.7687 S   0  0  0  0  0  0  0  0  0  0  0  0
    4.0886    0.5775   -6.5653 C   0  0  0  0  0  0  0  0  0  0  0  0
    1.8985    0.1708   -7.9715 O   0  0  0  0  0  0  0  0  0  0  0  0
    1.7980   -0.1506   -5.5164 O   0  0  0  0  0  0  0  0  0  0  0  0
    3.0162   -1.8218   -6.9480 O   0  0  0  0  0  0  0  0  0  0  0  0
    4.8845    0.4610   -7.6353 F   0  0  0  0  0  0  0  0  0  0  0  0
    3.7618    1.8776   -6.4227 F   0  0  0  0  0  0  0  0  0  0  0  0
    4.7739    0.1963   -5.4794 F   0  0  0  0  0  0  0  0  0  0  0  0
   -4.4889   -0.4282   -4.2601 O   0  0  0  0  0  0  0  0  0  0  0  0
   -5.7620    0.2206   -4.2005 C   0  0  0  0  0  0  0  0  0  0  0  0
   -6.4104   -0.4589   -3.6484 H   0  0  0  0  0  0  0  0  0  0  0  0
   -6.1702    0.3812   -5.2043 H   0  0  0  0  0  0  0  0  0  0  0  0
   -5.6936    1.1753   -3.6681 H   0  0  0  0  0  0  0  0  0  0  0  0
  1  7  1  0  0  0  0
  2  8  1  0  0  0  0
  2  1  2  0  0  0  0
  3  2  1  0  0  0  0
  4  3  2  0  0  0  0
  4  5  1  0  0  0  0
  5  6  2  0  0  0  0
  6  1  1  0  0  0  0
  6 21  1  0  0  0  0
  9  4  1  0  0  0  0
 10  5  1  0  0  0  0
 11  3  1  0  0  0  0
 12 11  1  0  0  0  0
 13 14  1  0  0  0  0
 13 16  1  0  0  0  0
 14 19  1  0  0  0  0
 14 20  1  0  0  0  0
 15 13  2  0  0  0  0
 17 13  2  0  0  0  0
 18 14  1  0  0  0  0
 21 22  1  0  0  0  0
 22 25  1  0  0  0  0
 22 23  1  0  0  0  0
 24 22  1  0  0  0  0
M  RAD  3  11   2  12   3  16   2
M  END
