Coordinates from ORCA-job p-CH3O-Ph-N2-X-OTf-B3LYPG-6-31G_dp-scan-d09-49-n400
 OpenBabel08281820593D

 25 24  0  0  0  0  0  0  0  0999 V2000
   -2.2174   -0.5038   -4.8472 C   0  0  0  0  0  0  0  0  0  0  0  0
   -1.1164    0.0255   -5.4867 C   0  0  0  0  0  0  0  0  0  0  0  0
   -1.2803    1.2537   -6.1632 C   0  0  0  0  0  0  0  0  0  0  0  0
   -2.5061    1.9438   -6.1954 C   0  0  0  0  0  0  0  0  0  0  0  0
   -3.5991    1.3939   -5.5501 C   0  0  0  0  0  0  0  0  0  0  0  0
   -3.4613    0.1630   -4.8718 C   0  0  0  0  0  0  0  0  0  0  0  0
   -2.1467   -1.4421   -4.3093 H   0  0  0  0  0  0  0  0  0  0  0  0
   -0.1268   -0.4288   -5.4631 H   0  0  0  0  0  0  0  0  0  0  0  0
   -2.5893    2.8864   -6.7246 H   0  0  0  0  0  0  0  0  0  0  0  0
   -4.5464    1.9168   -5.5733 H   0  0  0  0  0  0  0  0  0  0  0  0
   -0.2239    1.8129   -6.8446 N   0  0  0  0  0  0  0  0  0  0  0  0
    0.6192    2.2371   -7.4509 N   0  0  0  0  0  0  0  0  0  0  0  0
    2.5058   -0.2686   -6.7959 S   0  0  0  0  0  0  0  0  0  0  0  0
    4.2077    0.4206   -6.5257 C   0  0  0  0  0  0  0  0  0  0  0  0
    2.0259    0.4522   -8.0181 O   0  0  0  0  0  0  0  0  0  0  0  0
    1.7725    0.1644   -5.5703 O   0  0  0  0  0  0  0  0  0  0  0  0
    2.6898   -1.7149   -6.9535 O   0  0  0  0  0  0  0  0  0  0  0  0
    4.9987    0.1499   -7.5722 F   0  0  0  0  0  0  0  0  0  0  0  0
    4.1514    1.7552   -6.3716 F   0  0  0  0  0  0  0  0  0  0  0  0
    4.7599   -0.1080   -5.4253 F   0  0  0  0  0  0  0  0  0  0  0  0
   -4.4567   -0.4499   -4.2156 O   0  0  0  0  0  0  0  0  0  0  0  0
   -5.7552    0.1483   -4.1773 C   0  0  0  0  0  0  0  0  0  0  0  0
   -6.3734   -0.5330   -3.5936 H   0  0  0  0  0  0  0  0  0  0  0  0
   -6.1731    0.2489   -5.1849 H   0  0  0  0  0  0  0  0  0  0  0  0
   -5.7243    1.1267   -3.6858 H   0  0  0  0  0  0  0  0  0  0  0  0
  1  7  1  0  0  0  0
  2  8  1  0  0  0  0
  2  1  2  0  0  0  0
  3  2  1  0  0  0  0
  4  3  2  0  0  0  0
  4  5  1  0  0  0  0
  5  6  2  0  0  0  0
  6  1  1  0  0  0  0
  6 21  1  0  0  0  0
  9  4  1  0  0  0  0
 10  5  1  0  0  0  0
 11  3  1  0  0  0  0
 12 11  1  0  0  0  0
 13 14  1  0  0  0  0
 13 16  1  0  0  0  0
 14 19  1  0  0  0  0
 14 20  1  0  0  0  0
 15 13  2  0  0  0  0
 17 13  2  0  0  0  0
 18 14  1  0  0  0  0
 21 22  1  0  0  0  0
 22 25  1  0  0  0  0
 22 23  1  0  0  0  0
 24 22  1  0  0  0  0
M  RAD  3  11   2  12   3  16   2
M  END
