Coordinates from ORCA-job p-CH3O-Ph-N2-X-OTf-B3LYPG-6-31G_dp-scan-d09-49-n400
 OpenBabel08281820593D

 25 24  0  0  0  0  0  0  0  0999 V2000
   -2.3351   -0.7546   -4.9910 C   0  0  0  0  0  0  0  0  0  0  0  0
   -1.2315   -0.4444   -5.7586 C   0  0  0  0  0  0  0  0  0  0  0  0
   -1.2131    0.8008   -6.4163 C   0  0  0  0  0  0  0  0  0  0  0  0
   -2.2719    1.7226   -6.3065 C   0  0  0  0  0  0  0  0  0  0  0  0
   -3.3679    1.3987   -5.5264 C   0  0  0  0  0  0  0  0  0  0  0  0
   -3.4076    0.1535   -4.8634 C   0  0  0  0  0  0  0  0  0  0  0  0
   -2.3959   -1.7004   -4.4651 H   0  0  0  0  0  0  0  0  0  0  0  0
   -0.3776   -1.1027   -5.8599 H   0  0  0  0  0  0  0  0  0  0  0  0
   -2.2237    2.6729   -6.8266 H   0  0  0  0  0  0  0  0  0  0  0  0
   -4.1816    2.1068   -5.4365 H   0  0  0  0  0  0  0  0  0  0  0  0
   -0.1565    1.1706   -7.2257 N   0  0  0  0  0  0  0  0  0  0  0  0
    0.5364    1.6664   -7.9584 N   0  0  0  0  0  0  0  0  0  0  0  0
    2.7760   -0.4047   -7.1235 S   0  0  0  0  0  0  0  0  0  0  0  0
    3.6098    0.8646   -6.0551 C   0  0  0  0  0  0  0  0  0  0  0  0
    2.4563    0.3641   -8.3631 O   0  0  0  0  0  0  0  0  0  0  0  0
    1.5468   -0.7128   -6.3330 O   0  0  0  0  0  0  0  0  0  0  0  0
    3.7506   -1.4869   -7.2681 O   0  0  0  0  0  0  0  0  0  0  0  0
    4.7185    1.3348   -6.6362 F   0  0  0  0  0  0  0  0  0  0  0  0
    2.7717    1.9058   -5.8451 F   0  0  0  0  0  0  0  0  0  0  0  0
    3.9367    0.3515   -4.8615 F   0  0  0  0  0  0  0  0  0  0  0  0
   -4.4223   -0.2558   -4.0877 O   0  0  0  0  0  0  0  0  0  0  0  0
   -5.5502    0.6001   -3.8886 C   0  0  0  0  0  0  0  0  0  0  0  0
   -6.2213    0.0506   -3.2289 H   0  0  0  0  0  0  0  0  0  0  0  0
   -6.0591    0.8097   -4.8359 H   0  0  0  0  0  0  0  0  0  0  0  0
   -5.2531    1.5389   -3.4090 H   0  0  0  0  0  0  0  0  0  0  0  0
  1  6  1  0  0  0  0
  1  7  1  0  0  0  0
  2  1  2  0  0  0  0
  3  4  2  0  0  0  0
  3  2  1  0  0  0  0
  4  5  1  0  0  0  0
  5 10  1  0  0  0  0
  5  6  2  0  0  0  0
  6 21  1  0  0  0  0
  8  2  1  0  0  0  0
  9  4  1  0  0  0  0
 11  3  1  0  0  0  0
 12 11  1  0  0  0  0
 13 16  1  0  0  0  0
 13 14  1  0  0  0  0
 14 19  1  0  0  0  0
 14 20  1  0  0  0  0
 15 13  2  0  0  0  0
 17 13  2  0  0  0  0
 18 14  1  0  0  0  0
 21 22  1  0  0  0  0
 22 25  1  0  0  0  0
 22 23  1  0  0  0  0
 24 22  1  0  0  0  0
M  RAD  3  11   2  12   3  16   2
M  END
