Coordinates from ORCA-job p-CH3O-Ph-N2-X-OTf-B3LYPG-6-31G_dp-scan-d09-49-n400
 OpenBabel08281820593D

 25 24  0  0  0  0  0  0  0  0999 V2000
   -2.1778   -0.4794   -4.8666 C   0  0  0  0  0  0  0  0  0  0  0  0
   -1.0945    0.0789   -5.5111 C   0  0  0  0  0  0  0  0  0  0  0  0
   -1.2938    1.3031   -6.1861 C   0  0  0  0  0  0  0  0  0  0  0  0
   -2.5376    1.9606   -6.2102 C   0  0  0  0  0  0  0  0  0  0  0  0
   -3.6121    1.3830   -5.5582 C   0  0  0  0  0  0  0  0  0  0  0  0
   -3.4386    0.1552   -4.8827 C   0  0  0  0  0  0  0  0  0  0  0  0
   -2.0793   -1.4164   -4.3309 H   0  0  0  0  0  0  0  0  0  0  0  0
   -0.0960   -0.3523   -5.4869 H   0  0  0  0  0  0  0  0  0  0  0  0
   -2.6484    2.9010   -6.7384 H   0  0  0  0  0  0  0  0  0  0  0  0
   -4.5724    1.8819   -5.5742 H   0  0  0  0  0  0  0  0  0  0  0  0
   -0.2594    1.8887   -6.8788 N   0  0  0  0  0  0  0  0  0  0  0  0
    0.5678    2.3286   -7.4948 N   0  0  0  0  0  0  0  0  0  0  0  0
    2.4498   -0.1497   -6.7419 S   0  0  0  0  0  0  0  0  0  0  0  0
    4.2347    0.3068   -6.5188 C   0  0  0  0  0  0  0  0  0  0  0  0
    2.0520    0.5683   -7.9946 O   0  0  0  0  0  0  0  0  0  0  0  0
    1.7934    0.4293   -5.5339 O   0  0  0  0  0  0  0  0  0  0  0  0
    2.4291   -1.6154   -6.8274 O   0  0  0  0  0  0  0  0  0  0  0  0
    4.9651   -0.1283   -7.5540 F   0  0  0  0  0  0  0  0  0  0  0  0
    4.3700    1.6408   -6.4347 F   0  0  0  0  0  0  0  0  0  0  0  0
    4.7199   -0.2386   -5.3949 F   0  0  0  0  0  0  0  0  0  0  0  0
   -4.4137   -0.4842   -4.2218 O   0  0  0  0  0  0  0  0  0  0  0  0
   -5.7273    0.0794   -4.1756 C   0  0  0  0  0  0  0  0  0  0  0  0
   -6.3238   -0.6181   -3.5886 H   0  0  0  0  0  0  0  0  0  0  0  0
   -6.1536    0.1689   -5.1808 H   0  0  0  0  0  0  0  0  0  0  0  0
   -5.7194    1.0582   -3.6841 H   0  0  0  0  0  0  0  0  0  0  0  0
  1  7  1  0  0  0  0
  2  8  1  0  0  0  0
  2  1  2  0  0  0  0
  3  2  1  0  0  0  0
  4  3  2  0  0  0  0
  4  5  1  0  0  0  0
  5  6  2  0  0  0  0
  6  1  1  0  0  0  0
  6 21  1  0  0  0  0
  9  4  1  0  0  0  0
 10  5  1  0  0  0  0
 11  3  1  0  0  0  0
 12 11  1  0  0  0  0
 13 14  1  0  0  0  0
 13 16  1  0  0  0  0
 14 19  1  0  0  0  0
 14 20  1  0  0  0  0
 15 13  2  0  0  0  0
 17 13  2  0  0  0  0
 18 14  1  0  0  0  0
 21 22  1  0  0  0  0
 22 25  1  0  0  0  0
 22 23  1  0  0  0  0
 24 22  1  0  0  0  0
M  RAD  3  11   2  12   3  16   2
M  END
