Coordinates from ORCA-job p-CH3O-Ph-N2-X-OTf-B3LYPG-6-31G_dp-scan-d09-49-n400
 OpenBabel08281820593D

 25 24  0  0  0  0  0  0  0  0999 V2000
   -2.2956   -0.6084   -4.9154 C   0  0  0  0  0  0  0  0  0  0  0  0
   -1.1687   -0.1575   -5.5702 C   0  0  0  0  0  0  0  0  0  0  0  0
   -1.2378    1.1034   -6.2008 C   0  0  0  0  0  0  0  0  0  0  0  0
   -2.3967    1.9008   -6.1747 C   0  0  0  0  0  0  0  0  0  0  0  0
   -3.5181    1.4285   -5.5163 C   0  0  0  0  0  0  0  0  0  0  0  0
   -3.4744    0.1674   -4.8823 C   0  0  0  0  0  0  0  0  0  0  0  0
   -2.2956   -1.5670   -4.4097 H   0  0  0  0  0  0  0  0  0  0  0  0
   -0.2271   -0.7019   -5.5952 H   0  0  0  0  0  0  0  0  0  0  0  0
   -2.4079    2.8655   -6.6694 H   0  0  0  0  0  0  0  0  0  0  0  0
   -4.4147    2.0341   -5.4953 H   0  0  0  0  0  0  0  0  0  0  0  0
   -0.1493    1.5911   -6.8855 N   0  0  0  0  0  0  0  0  0  0  0  0
    0.7288    1.9568   -7.4825 N   0  0  0  0  0  0  0  0  0  0  0  0
    2.6392   -0.4930   -6.8761 S   0  0  0  0  0  0  0  0  0  0  0  0
    3.9972    0.6962   -6.4425 C   0  0  0  0  0  0  0  0  0  0  0  0
    2.0281    0.1319   -8.0942 O   0  0  0  0  0  0  0  0  0  0  0  0
    1.7409   -0.3972   -5.6901 O   0  0  0  0  0  0  0  0  0  0  0  0
    3.3063   -1.7780   -7.0983 O   0  0  0  0  0  0  0  0  0  0  0  0
    4.8942    0.7813   -7.4322 F   0  0  0  0  0  0  0  0  0  0  0  0
    3.4826    1.9278   -6.2356 F   0  0  0  0  0  0  0  0  0  0  0  0
    4.6285    0.3160   -5.3244 F   0  0  0  0  0  0  0  0  0  0  0  0
   -4.5042   -0.3769   -4.2184 O   0  0  0  0  0  0  0  0  0  0  0  0
   -5.7400    0.3359   -4.1184 C   0  0  0  0  0  0  0  0  0  0  0  0
   -6.4038   -0.3098   -3.5443 H   0  0  0  0  0  0  0  0  0  0  0  0
   -6.1721    0.5174   -5.1084 H   0  0  0  0  0  0  0  0  0  0  0  0
   -5.6055    1.2857   -3.5896 H   0  0  0  0  0  0  0  0  0  0  0  0
  1  6  1  0  0  0  0
  1  7  1  0  0  0  0
  2  1  2  0  0  0  0
  3  4  2  0  0  0  0
  3  2  1  0  0  0  0
  4  5  1  0  0  0  0
  5 10  1  0  0  0  0
  5  6  2  0  0  0  0
  6 21  1  0  0  0  0
  8  2  1  0  0  0  0
  9  4  1  0  0  0  0
 11  3  1  0  0  0  0
 12 11  1  0  0  0  0
 13 14  1  0  0  0  0
 13 16  1  0  0  0  0
 14 19  1  0  0  0  0
 14 20  1  0  0  0  0
 15 13  2  0  0  0  0
 17 13  2  0  0  0  0
 18 14  1  0  0  0  0
 21 22  1  0  0  0  0
 22 25  1  0  0  0  0
 22 23  1  0  0  0  0
 24 22  1  0  0  0  0
M  RAD  3  11   2  12   3  16   2
M  END
