Coordinates from ORCA-job p-CH3O-Ph-N2-X-OTf-B3LYPG-6-31G_dp-scan-d09-49-n400
 OpenBabel08281820593D

 25 24  0  0  0  0  0  0  0  0999 V2000
   -1.9658   -0.2615   -4.8880 C   0  0  0  0  0  0  0  0  0  0  0  0
   -0.9846    0.4834   -5.5089 C   0  0  0  0  0  0  0  0  0  0  0  0
   -1.4054    1.6257   -6.2276 C   0  0  0  0  0  0  0  0  0  0  0  0
   -2.7506    2.0245   -6.3209 C   0  0  0  0  0  0  0  0  0  0  0  0
   -3.7147    1.2566   -5.6951 C   0  0  0  0  0  0  0  0  0  0  0  0
   -3.3263    0.1049   -4.9734 C   0  0  0  0  0  0  0  0  0  0  0  0
   -1.7035   -1.1455   -4.3175 H   0  0  0  0  0  0  0  0  0  0  0  0
    0.0825    0.2237   -5.4275 H   0  0  0  0  0  0  0  0  0  0  0  0
   -3.0219    2.9137   -6.8795 H   0  0  0  0  0  0  0  0  0  0  0  0
   -4.7545    1.5495   -5.7640 H   0  0  0  0  0  0  0  0  0  0  0  0
   -0.4551    2.3906   -6.8611 N   0  0  0  0  0  0  0  0  0  0  0  0
    0.4547    2.8403   -7.3420 N   0  0  0  0  0  0  0  0  0  0  0  0
    2.6562    0.7363   -6.1433 S   0  0  0  0  0  0  0  0  0  0  0  0
    3.9486   -0.4628   -6.7286 C   0  0  0  0  0  0  0  0  0  0  0  0
    1.8546    0.9851   -7.3903 O   0  0  0  0  0  0  0  0  0  0  0  0
    3.3983    1.8993   -5.6392 O   0  0  0  0  0  0  0  0  0  0  0  0
    1.8824   -0.0367   -5.1325 O   0  0  0  0  0  0  0  0  0  0  0  0
    3.3751   -1.5677   -7.2296 F   0  0  0  0  0  0  0  0  0  0  0  0
    4.7039    0.0940   -7.6844 F   0  0  0  0  0  0  0  0  0  0  0  0
    4.7425   -0.8211   -5.7103 F   0  0  0  0  0  0  0  0  0  0  0  0
   -4.1821   -0.7005   -4.3297 O   0  0  0  0  0  0  0  0  0  0  0  0
   -5.5822   -0.4109   -4.3501 C   0  0  0  0  0  0  0  0  0  0  0  0
   -6.0523   -1.1993   -3.7634 H   0  0  0  0  0  0  0  0  0  0  0  0
   -5.9747   -0.4326   -5.3725 H   0  0  0  0  0  0  0  0  0  0  0  0
   -5.7908    0.5614   -3.8906 H   0  0  0  0  0  0  0  0  0  0  0  0
  1  7  1  0  0  0  0
  2  8  1  0  0  0  0
  2  1  2  0  0  0  0
  3  2  1  0  0  0  0
  4  3  2  0  0  0  0
  4  5  1  0  0  0  0
  5  6  2  0  0  0  0
  6  1  1  0  0  0  0
  6 21  1  0  0  0  0
  9  4  1  0  0  0  0
 10  5  1  0  0  0  0
 11  3  1  0  0  0  0
 12 11  1  0  0  0  0
 13 16  2  0  0  0  0
 13 17  1  0  0  0  0
 14 13  1  0  0  0  0
 14 20  1  0  0  0  0
 15 13  2  0  0  0  0
 18 14  1  0  0  0  0
 19 14  1  0  0  0  0
 22 21  1  0  0  0  0
 22 25  1  0  0  0  0
 22 23  1  0  0  0  0
 24 22  1  0  0  0  0
M  RAD  3  11   2  12   3  17   2
M  END
