Coordinates from ORCA-job p-CH3O-Ph-N2-X-OTf-B3LYPG-6-31G_dp-scan-d09-49-n400
 OpenBabel08281820593D

 25 24  0  0  0  0  0  0  0  0999 V2000
   -2.2232   -0.5111   -4.8518 C   0  0  0  0  0  0  0  0  0  0  0  0
   -1.1205    0.0135   -5.4923 C   0  0  0  0  0  0  0  0  0  0  0  0
   -1.2788    1.2441   -6.1657 C   0  0  0  0  0  0  0  0  0  0  0  0
   -2.5010    1.9409   -6.1942 C   0  0  0  0  0  0  0  0  0  0  0  0
   -3.5958    1.3957   -5.5480 C   0  0  0  0  0  0  0  0  0  0  0  0
   -3.4633    0.1626   -4.8725 C   0  0  0  0  0  0  0  0  0  0  0  0
   -2.1566   -1.4509   -4.3159 H   0  0  0  0  0  0  0  0  0  0  0  0
   -0.1331   -0.4459   -5.4716 H   0  0  0  0  0  0  0  0  0  0  0  0
   -2.5800    2.8851   -6.7212 H   0  0  0  0  0  0  0  0  0  0  0  0
   -4.5402    1.9237   -5.5682 H   0  0  0  0  0  0  0  0  0  0  0  0
   -0.2206    1.7993   -6.8475 N   0  0  0  0  0  0  0  0  0  0  0  0
    0.6232    2.2218   -7.4540 N   0  0  0  0  0  0  0  0  0  0  0  0
    2.5130   -0.2808   -6.8020 S   0  0  0  0  0  0  0  0  0  0  0  0
    4.2012    0.4372   -6.5204 C   0  0  0  0  0  0  0  0  0  0  0  0
    2.0271    0.4372   -8.0234 O   0  0  0  0  0  0  0  0  0  0  0  0
    1.7670    0.1351   -5.5780 O   0  0  0  0  0  0  0  0  0  0  0  0
    2.7227   -1.7229   -6.9648 O   0  0  0  0  0  0  0  0  0  0  0  0
    5.0017    0.1868   -7.5646 F   0  0  0  0  0  0  0  0  0  0  0  0
    4.1196    1.7698   -6.3594 F   0  0  0  0  0  0  0  0  0  0  0  0
    4.7580   -0.0871   -5.4203 F   0  0  0  0  0  0  0  0  0  0  0  0
   -4.4608   -0.4461   -4.2155 O   0  0  0  0  0  0  0  0  0  0  0  0
   -5.7557    0.1596   -4.1724 C   0  0  0  0  0  0  0  0  0  0  0  0
   -6.3763   -0.5193   -3.5887 H   0  0  0  0  0  0  0  0  0  0  0  0
   -6.1755    0.2650   -5.1788 H   0  0  0  0  0  0  0  0  0  0  0  0
   -5.7178    1.1367   -3.6789 H   0  0  0  0  0  0  0  0  0  0  0  0
  1  7  1  0  0  0  0
  2  8  1  0  0  0  0
  2  1  2  0  0  0  0
  3  2  1  0  0  0  0
  4  3  2  0  0  0  0
  4  5  1  0  0  0  0
  5  6  2  0  0  0  0
  6  1  1  0  0  0  0
  6 21  1  0  0  0  0
  9  4  1  0  0  0  0
 10  5  1  0  0  0  0
 11  3  1  0  0  0  0
 12 11  1  0  0  0  0
 13 14  1  0  0  0  0
 13 16  1  0  0  0  0
 14 19  1  0  0  0  0
 14 20  1  0  0  0  0
 15 13  2  0  0  0  0
 17 13  2  0  0  0  0
 18 14  1  0  0  0  0
 21 22  1  0  0  0  0
 22 25  1  0  0  0  0
 22 23  1  0  0  0  0
 24 22  1  0  0  0  0
M  RAD  3  11   2  12   3  16   2
M  END
