Coordinates from ORCA-job p-CH3O-Ph-N2-X-OTf-B3LYPG-6-31G_dp-scan-d09-49-n400
 OpenBabel08281820593D

 25 24  0  0  0  0  0  0  0  0999 V2000
   -2.3097   -0.6302   -4.9250 C   0  0  0  0  0  0  0  0  0  0  0  0
   -1.1830   -0.1982   -5.5929 C   0  0  0  0  0  0  0  0  0  0  0  0
   -1.2370    1.0630   -6.2235 C   0  0  0  0  0  0  0  0  0  0  0  0
   -2.3827    1.8793   -6.1852 C   0  0  0  0  0  0  0  0  0  0  0  0
   -3.5042    1.4268   -5.5132 C   0  0  0  0  0  0  0  0  0  0  0  0
   -3.4748    0.1655   -4.8788 C   0  0  0  0  0  0  0  0  0  0  0  0
   -2.3202   -1.5886   -4.4193 H   0  0  0  0  0  0  0  0  0  0  0  0
   -0.2527   -0.7595   -5.6298 H   0  0  0  0  0  0  0  0  0  0  0  0
   -2.3835    2.8437   -6.6806 H   0  0  0  0  0  0  0  0  0  0  0  0
   -4.3901    2.0476   -5.4824 H   0  0  0  0  0  0  0  0  0  0  0  0
   -0.1503    1.5345   -6.9227 N   0  0  0  0  0  0  0  0  0  0  0  0
    0.7114    1.9162   -7.5336 N   0  0  0  0  0  0  0  0  0  0  0  0
    2.6655   -0.4937   -6.9112 S   0  0  0  0  0  0  0  0  0  0  0  0
    3.9658    0.7286   -6.3994 C   0  0  0  0  0  0  0  0  0  0  0  0
    2.0818    0.1384   -8.1383 O   0  0  0  0  0  0  0  0  0  0  0  0
    1.7200   -0.4513   -5.7588 O   0  0  0  0  0  0  0  0  0  0  0  0
    3.3841   -1.7507   -7.1326 O   0  0  0  0  0  0  0  0  0  0  0  0
    4.8969    0.8663   -7.3509 F   0  0  0  0  0  0  0  0  0  0  0  0
    3.4026    1.9381   -6.1857 F   0  0  0  0  0  0  0  0  0  0  0  0
    4.5663    0.3439   -5.2659 F   0  0  0  0  0  0  0  0  0  0  0  0
   -4.5061   -0.3611   -4.2032 O   0  0  0  0  0  0  0  0  0  0  0  0
   -5.7285    0.3725   -4.0901 C   0  0  0  0  0  0  0  0  0  0  0  0
   -6.3971   -0.2622   -3.5091 H   0  0  0  0  0  0  0  0  0  0  0  0
   -6.1680    0.5616   -5.0754 H   0  0  0  0  0  0  0  0  0  0  0  0
   -5.5724    1.3196   -3.5625 H   0  0  0  0  0  0  0  0  0  0  0  0
  1  6  1  0  0  0  0
  1  7  1  0  0  0  0
  2  1  2  0  0  0  0
  3  4  2  0  0  0  0
  3  2  1  0  0  0  0
  4  5  1  0  0  0  0
  5 10  1  0  0  0  0
  5  6  2  0  0  0  0
  6 21  1  0  0  0  0
  8  2  1  0  0  0  0
  9  4  1  0  0  0  0
 11  3  1  0  0  0  0
 12 11  1  0  0  0  0
 13 14  1  0  0  0  0
 13 16  1  0  0  0  0
 14 19  1  0  0  0  0
 14 20  1  0  0  0  0
 15 13  2  0  0  0  0
 17 13  2  0  0  0  0
 18 14  1  0  0  0  0
 21 22  1  0  0  0  0
 22 25  1  0  0  0  0
 22 23  1  0  0  0  0
 24 22  1  0  0  0  0
M  RAD  3  11   2  12   3  16   2
M  END
