Coordinates from ORCA-job p-CH3O-Ph-N2-X-OTf-B3LYPG-6-31G_dp-scan-d09-49-n400
 OpenBabel08281820593D

 25 24  0  0  0  0  0  0  0  0999 V2000
   -2.3457   -0.7679   -5.0001 C   0  0  0  0  0  0  0  0  0  0  0  0
   -1.2411   -0.4668   -5.7700 C   0  0  0  0  0  0  0  0  0  0  0  0
   -1.2103    0.7805   -6.4230 C   0  0  0  0  0  0  0  0  0  0  0  0
   -2.2586    1.7133   -6.3050 C   0  0  0  0  0  0  0  0  0  0  0  0
   -3.3554    1.3992   -5.5218 C   0  0  0  0  0  0  0  0  0  0  0  0
   -3.4072    0.1517   -4.8643 C   0  0  0  0  0  0  0  0  0  0  0  0
   -2.4153   -1.7153   -4.4783 H   0  0  0  0  0  0  0  0  0  0  0  0
   -0.3986   -1.1379   -5.8749 H   0  0  0  0  0  0  0  0  0  0  0  0
   -2.2016    2.6651   -6.8215 H   0  0  0  0  0  0  0  0  0  0  0  0
   -4.1602    2.1165   -5.4257 H   0  0  0  0  0  0  0  0  0  0  0  0
   -0.1544    1.1431   -7.2369 N   0  0  0  0  0  0  0  0  0  0  0  0
    0.5333    1.6409   -7.9734 N   0  0  0  0  0  0  0  0  0  0  0  0
    2.7901   -0.4008   -7.1296 S   0  0  0  0  0  0  0  0  0  0  0  0
    3.5845    0.8794   -6.0441 C   0  0  0  0  0  0  0  0  0  0  0  0
    2.4685    0.3698   -8.3681 O   0  0  0  0  0  0  0  0  0  0  0  0
    1.5588   -0.7382   -6.3558 O   0  0  0  0  0  0  0  0  0  0  0  0
    3.7920   -1.4579   -7.2719 O   0  0  0  0  0  0  0  0  0  0  0  0
    4.6887    1.3783   -6.6095 F   0  0  0  0  0  0  0  0  0  0  0  0
    2.7212    1.9008   -5.8363 F   0  0  0  0  0  0  0  0  0  0  0  0
    3.9095    0.3658   -4.8502 F   0  0  0  0  0  0  0  0  0  0  0  0
   -4.4237   -0.2496   -4.0868 O   0  0  0  0  0  0  0  0  0  0  0  0
   -5.5412    0.6180   -3.8801 C   0  0  0  0  0  0  0  0  0  0  0  0
   -6.2165    0.0730   -3.2210 H   0  0  0  0  0  0  0  0  0  0  0  0
   -6.0505    0.8380   -4.8247 H   0  0  0  0  0  0  0  0  0  0  0  0
   -5.2320    1.5511   -3.3969 H   0  0  0  0  0  0  0  0  0  0  0  0
  1  6  1  0  0  0  0
  1  7  1  0  0  0  0
  2  1  2  0  0  0  0
  3  4  2  0  0  0  0
  3  2  1  0  0  0  0
  4  5  1  0  0  0  0
  5 10  1  0  0  0  0
  5  6  2  0  0  0  0
  6 21  1  0  0  0  0
  8  2  1  0  0  0  0
  9  4  1  0  0  0  0
 11  3  1  0  0  0  0
 12 11  1  0  0  0  0
 13 16  1  0  0  0  0
 13 14  1  0  0  0  0
 14 19  1  0  0  0  0
 14 20  1  0  0  0  0
 15 13  2  0  0  0  0
 17 13  2  0  0  0  0
 18 14  1  0  0  0  0
 21 22  1  0  0  0  0
 22 25  1  0  0  0  0
 22 23  1  0  0  0  0
 24 22  1  0  0  0  0
M  RAD  3  11   2  12   3  16   2
M  END
