Coordinates from ORCA-job p-CH3O-Ph-N2-X-OTf-B3LYPG-6-31G_dp-scan-d09-49-n400
 OpenBabel08281820593D

 25 24  0  0  0  0  0  0  0  0999 V2000
   -2.1809   -0.6556   -5.2668 C   0  0  0  0  0  0  0  0  0  0  0  0
   -1.1757   -0.1340   -6.0522 C   0  0  0  0  0  0  0  0  0  0  0  0
   -1.3659    1.1618   -6.5841 C   0  0  0  0  0  0  0  0  0  0  0  0
   -2.5238    1.9185   -6.3306 C   0  0  0  0  0  0  0  0  0  0  0  0
   -3.5149    1.3826   -5.5279 C   0  0  0  0  0  0  0  0  0  0  0  0
   -3.3483    0.0884   -4.9899 C   0  0  0  0  0  0  0  0  0  0  0  0
   -2.0850   -1.6447   -4.8349 H   0  0  0  0  0  0  0  0  0  0  0  0
   -0.2631   -0.6860   -6.2446 H   0  0  0  0  0  0  0  0  0  0  0  0
   -2.6301    2.9100   -6.7559 H   0  0  0  0  0  0  0  0  0  0  0  0
   -4.4046    1.9638   -5.3247 H   0  0  0  0  0  0  0  0  0  0  0  0
   -0.4136    1.7252   -7.3967 N   0  0  0  0  0  0  0  0  0  0  0  0
    0.3548    2.1571   -8.0892 N   0  0  0  0  0  0  0  0  0  0  0  0
    2.3351    0.1407   -6.6536 S   0  0  0  0  0  0  0  0  0  0  0  0
    4.0945    0.3155   -6.0870 C   0  0  0  0  0  0  0  0  0  0  0  0
    2.3190    0.7902   -8.0004 O   0  0  0  0  0  0  0  0  0  0  0  0
    1.5463    0.8982   -5.6450 O   0  0  0  0  0  0  0  0  0  0  0  0
    2.0820   -1.3146   -6.6640 O   0  0  0  0  0  0  0  0  0  0  0  0
    4.9240   -0.3198   -6.9249 F   0  0  0  0  0  0  0  0  0  0  0  0
    4.4454    1.6093   -6.0373 F   0  0  0  0  0  0  0  0  0  0  0  0
    4.2398   -0.2093   -4.8614 F   0  0  0  0  0  0  0  0  0  0  0  0
   -4.2461   -0.5217   -4.2041 O   0  0  0  0  0  0  0  0  0  0  0  0
   -5.4552    0.1549   -3.8503 C   0  0  0  0  0  0  0  0  0  0  0  0
   -5.9990   -0.5367   -3.2074 H   0  0  0  0  0  0  0  0  0  0  0  0
   -6.0566    0.3785   -4.7382 H   0  0  0  0  0  0  0  0  0  0  0  0
   -5.2438    1.0776   -3.2990 H   0  0  0  0  0  0  0  0  0  0  0  0
  1  6  1  0  0  0  0
  1  7  1  0  0  0  0
  2  1  2  0  0  0  0
  3  4  2  0  0  0  0
  3  2  1  0  0  0  0
  4  5  1  0  0  0  0
  5 10  1  0  0  0  0
  5  6  2  0  0  0  0
  6 21  1  0  0  0  0
  8  2  1  0  0  0  0
  9  4  1  0  0  0  0
 11  3  1  0  0  0  0
 12 11  1  0  0  0  0
 13 14  1  0  0  0  0
 13 16  1  0  0  0  0
 14 19  1  0  0  0  0
 14 20  1  0  0  0  0
 15 13  2  0  0  0  0
 17 13  2  0  0  0  0
 18 14  1  0  0  0  0
 21 22  1  0  0  0  0
 22 25  1  0  0  0  0
 22 23  1  0  0  0  0
 24 22  1  0  0  0  0
M  RAD  3  11   2  12   3  16   2
M  END
