Coordinates from ORCA-job p-CH3O-Ph-N2-X-OTf-B3LYPG-6-31G_dp-scan-d09-49-n400
 OpenBabel08281820593D

 25 24  0  0  0  0  0  0  0  0999 V2000
   -2.2934   -0.6049   -4.9132 C   0  0  0  0  0  0  0  0  0  0  0  0
   -1.1664   -0.1510   -5.5657 C   0  0  0  0  0  0  0  0  0  0  0  0
   -1.2376    1.1097   -6.1965 C   0  0  0  0  0  0  0  0  0  0  0  0
   -2.3987    1.9042   -6.1726 C   0  0  0  0  0  0  0  0  0  0  0  0
   -3.5201    1.4289   -5.5166 C   0  0  0  0  0  0  0  0  0  0  0  0
   -3.4744    0.1678   -4.8826 C   0  0  0  0  0  0  0  0  0  0  0  0
   -2.2919   -1.5634   -4.4074 H   0  0  0  0  0  0  0  0  0  0  0  0
   -0.2232   -0.6929   -5.5886 H   0  0  0  0  0  0  0  0  0  0  0  0
   -2.4113    2.8689   -6.6672 H   0  0  0  0  0  0  0  0  0  0  0  0
   -4.4184    2.0321   -5.4973 H   0  0  0  0  0  0  0  0  0  0  0  0
   -0.1488    1.5998   -6.8789 N   0  0  0  0  0  0  0  0  0  0  0  0
    0.7316    1.9631   -7.4738 N   0  0  0  0  0  0  0  0  0  0  0  0
    2.6352   -0.4928   -6.8707 S   0  0  0  0  0  0  0  0  0  0  0  0
    4.0020    0.6911   -6.4501 C   0  0  0  0  0  0  0  0  0  0  0  0
    2.0194    0.1311   -8.0871 O   0  0  0  0  0  0  0  0  0  0  0  0
    1.7449   -0.3887   -5.6795 O   0  0  0  0  0  0  0  0  0  0  0  0
    3.2943   -1.7818   -7.0931 O   0  0  0  0  0  0  0  0  0  0  0  0
    4.8933    0.7675   -7.4456 F   0  0  0  0  0  0  0  0  0  0  0  0
    3.4952    1.9260   -6.2446 F   0  0  0  0  0  0  0  0  0  0  0  0
    4.6383    0.3116   -5.3344 F   0  0  0  0  0  0  0  0  0  0  0  0
   -4.5041   -0.3793   -4.2208 O   0  0  0  0  0  0  0  0  0  0  0  0
   -5.7421    0.3301   -4.1236 C   0  0  0  0  0  0  0  0  0  0  0  0
   -6.4054   -0.3175   -3.5510 H   0  0  0  0  0  0  0  0  0  0  0  0
   -6.1726    0.5103   -5.1146 H   0  0  0  0  0  0  0  0  0  0  0  0
   -5.6115    1.2802   -3.5946 H   0  0  0  0  0  0  0  0  0  0  0  0
  1  6  1  0  0  0  0
  1  7  1  0  0  0  0
  2  1  2  0  0  0  0
  3  4  2  0  0  0  0
  3  2  1  0  0  0  0
  4  5  1  0  0  0  0
  5 10  1  0  0  0  0
  5  6  2  0  0  0  0
  6 21  1  0  0  0  0
  8  2  1  0  0  0  0
  9  4  1  0  0  0  0
 11  3  1  0  0  0  0
 12 11  1  0  0  0  0
 13 14  1  0  0  0  0
 13 16  1  0  0  0  0
 14 19  1  0  0  0  0
 14 20  1  0  0  0  0
 15 13  2  0  0  0  0
 17 13  2  0  0  0  0
 18 14  1  0  0  0  0
 21 22  1  0  0  0  0
 22 25  1  0  0  0  0
 22 23  1  0  0  0  0
 24 22  1  0  0  0  0
M  RAD  3  11   2  12   3  16   2
M  END
