Coordinates from ORCA-job p-CH3O-Ph-N2-X-OTf-B3LYPG-6-31G_dp-scan-d09-49-n400
 OpenBabel08281820593D

 25 24  0  0  0  0  0  0  0  0999 V2000
   -2.0649   -0.3971   -4.9986 C   0  0  0  0  0  0  0  0  0  0  0  0
   -1.0540    0.2897   -5.6379 C   0  0  0  0  0  0  0  0  0  0  0  0
   -1.3989    1.5012   -6.2798 C   0  0  0  0  0  0  0  0  0  0  0  0
   -2.7049    2.0190   -6.2768 C   0  0  0  0  0  0  0  0  0  0  0  0
   -3.7043    1.3097   -5.6350 C   0  0  0  0  0  0  0  0  0  0  0  0
   -3.3887    0.0931   -4.9914 C   0  0  0  0  0  0  0  0  0  0  0  0
   -1.8551   -1.3279   -4.4842 H   0  0  0  0  0  0  0  0  0  0  0  0
   -0.0234   -0.0700   -5.6220 H   0  0  0  0  0  0  0  0  0  0  0  0
   -2.9208    2.9572   -6.7756 H   0  0  0  0  0  0  0  0  0  0  0  0
   -4.7143    1.6990   -5.6314 H   0  0  0  0  0  0  0  0  0  0  0  0
   -0.4196    2.2158   -6.9323 N   0  0  0  0  0  0  0  0  0  0  0  0
    0.5298    2.5673   -7.4248 N   0  0  0  0  0  0  0  0  0  0  0  0
    2.5708    0.5818   -6.1510 S   0  0  0  0  0  0  0  0  0  0  0  0
    4.1491   -0.2343   -6.6917 C   0  0  0  0  0  0  0  0  0  0  0  0
    1.7887    0.6779   -7.4368 O   0  0  0  0  0  0  0  0  0  0  0  0
    2.9663    1.8866   -5.5965 O   0  0  0  0  0  0  0  0  0  0  0  0
    1.9617   -0.3835   -5.2034 O   0  0  0  0  0  0  0  0  0  0  0  0
    3.8941   -1.4293   -7.2428 F   0  0  0  0  0  0  0  0  0  0  0  0
    4.7819    0.5257   -7.5954 F   0  0  0  0  0  0  0  0  0  0  0  0
    4.9590   -0.4127   -5.6398 F   0  0  0  0  0  0  0  0  0  0  0  0
   -4.2804   -0.6663   -4.3394 O   0  0  0  0  0  0  0  0  0  0  0  0
   -5.6471   -0.2521   -4.2686 C   0  0  0  0  0  0  0  0  0  0  0  0
   -6.1569   -1.0240   -3.6930 H   0  0  0  0  0  0  0  0  0  0  0  0
   -6.0922   -0.1871   -5.2674 H   0  0  0  0  0  0  0  0  0  0  0  0
   -5.7414    0.7105   -3.7542 H   0  0  0  0  0  0  0  0  0  0  0  0
  1  6  1  0  0  0  0
  1  7  1  0  0  0  0
  2  8  1  0  0  0  0
  2  1  2  0  0  0  0
  3  4  2  0  0  0  0
  3  2  1  0  0  0  0
  4  5  1  0  0  0  0
  5 10  1  0  0  0  0
  5  6  2  0  0  0  0
  6 21  1  0  0  0  0
  9  4  1  0  0  0  0
 11  3  1  0  0  0  0
 12 11  1  0  0  0  0
 13 16  2  0  0  0  0
 13 17  1  0  0  0  0
 14 13  1  0  0  0  0
 14 20  1  0  0  0  0
 15 13  2  0  0  0  0
 18 14  1  0  0  0  0
 19 14  1  0  0  0  0
 21 22  1  0  0  0  0
 22 25  1  0  0  0  0
 22 23  1  0  0  0  0
 24 22  1  0  0  0  0
M  RAD  3  11   2  12   3  17   2
M  END
