Coordinates from ORCA-job p-CH3O-Ph-N2-X-OTf-B3LYPG-6-31G_dp-scan-d09-49-n400
 OpenBabel08281820593D

 25 24  0  0  0  0  0  0  0  0999 V2000
   -2.1665   -0.6500   -5.2683 C   0  0  0  0  0  0  0  0  0  0  0  0
   -1.1684   -0.1266   -6.0617 C   0  0  0  0  0  0  0  0  0  0  0  0
   -1.3707    1.1647   -6.6004 C   0  0  0  0  0  0  0  0  0  0  0  0
   -2.5329    1.9150   -6.3467 C   0  0  0  0  0  0  0  0  0  0  0  0
   -3.5163    1.3770   -5.5361 C   0  0  0  0  0  0  0  0  0  0  0  0
   -3.3376    0.0876   -4.9904 C   0  0  0  0  0  0  0  0  0  0  0  0
   -2.0616   -1.6358   -4.8309 H   0  0  0  0  0  0  0  0  0  0  0  0
   -0.2535   -0.6750   -6.2572 H   0  0  0  0  0  0  0  0  0  0  0  0
   -2.6480    2.9031   -6.7775 H   0  0  0  0  0  0  0  0  0  0  0  0
   -4.4093    1.9531   -5.3326 H   0  0  0  0  0  0  0  0  0  0  0  0
   -0.4247    1.7302   -7.4185 N   0  0  0  0  0  0  0  0  0  0  0  0
    0.3426    2.1623   -8.1120 N   0  0  0  0  0  0  0  0  0  0  0  0
    2.3242    0.1738   -6.6503 S   0  0  0  0  0  0  0  0  0  0  0  0
    4.0839    0.2913   -6.0698 C   0  0  0  0  0  0  0  0  0  0  0  0
    2.3377    0.8277   -7.9944 O   0  0  0  0  0  0  0  0  0  0  0  0
    1.5493    0.9479   -5.6442 O   0  0  0  0  0  0  0  0  0  0  0  0
    2.0272   -1.2743   -6.6688 O   0  0  0  0  0  0  0  0  0  0  0  0
    4.8992   -0.3668   -6.9041 F   0  0  0  0  0  0  0  0  0  0  0  0
    4.4750    1.5729   -6.0121 F   0  0  0  0  0  0  0  0  0  0  0  0
    4.2029   -0.2428   -4.8455 F   0  0  0  0  0  0  0  0  0  0  0  0
   -4.2271   -0.5236   -4.1961 O   0  0  0  0  0  0  0  0  0  0  0  0
   -5.4389    0.1471   -3.8402 C   0  0  0  0  0  0  0  0  0  0  0  0
   -5.9740   -0.5436   -3.1889 H   0  0  0  0  0  0  0  0  0  0  0  0
   -6.0471    0.3597   -4.7262 H   0  0  0  0  0  0  0  0  0  0  0  0
   -5.2310    1.0753   -3.2969 H   0  0  0  0  0  0  0  0  0  0  0  0
  1  6  1  0  0  0  0
  1  7  1  0  0  0  0
  2  1  2  0  0  0  0
  3  4  2  0  0  0  0
  3  2  1  0  0  0  0
  4  5  1  0  0  0  0
  5 10  1  0  0  0  0
  5  6  2  0  0  0  0
  6 21  1  0  0  0  0
  8  2  1  0  0  0  0
  9  4  1  0  0  0  0
 11  3  1  0  0  0  0
 12 11  1  0  0  0  0
 13 14  1  0  0  0  0
 13 16  1  0  0  0  0
 14 19  1  0  0  0  0
 14 20  1  0  0  0  0
 15 13  2  0  0  0  0
 17 13  2  0  0  0  0
 18 14  1  0  0  0  0
 21 22  1  0  0  0  0
 22 25  1  0  0  0  0
 22 23  1  0  0  0  0
 24 22  1  0  0  0  0
M  RAD  3  11   2  12   3  16   2
M  END
