Coordinates from ORCA-job p-CH3O-Ph-N2-X-OTf-B3LYPG-6-31G_dp-scan-d09-49-n400
 OpenBabel08281820593D

 25 24  0  0  0  0  0  0  0  0999 V2000
   -2.4585   -1.0246   -5.5055 C   0  0  0  0  0  0  0  0  0  0  0  0
   -1.4542   -0.8614   -6.4352 C   0  0  0  0  0  0  0  0  0  0  0  0
   -1.1912    0.4406   -6.9012 C   0  0  0  0  0  0  0  0  0  0  0  0
   -1.8990    1.5616   -6.4399 C   0  0  0  0  0  0  0  0  0  0  0  0
   -2.8897    1.3829   -5.4877 C   0  0  0  0  0  0  0  0  0  0  0  0
   -3.1785    0.0870   -5.0165 C   0  0  0  0  0  0  0  0  0  0  0  0
   -2.6994   -2.0064   -5.1153 H   0  0  0  0  0  0  0  0  0  0  0  0
   -0.8643   -1.6940   -6.7913 H   0  0  0  0  0  0  0  0  0  0  0  0
   -1.6570    2.5507   -6.8114 H   0  0  0  0  0  0  0  0  0  0  0  0
   -3.4269    2.2465   -5.1183 H   0  0  0  0  0  0  0  0  0  0  0  0
   -0.2293    0.6608   -7.8644 N   0  0  0  0  0  0  0  0  0  0  0  0
    0.4441    0.9757   -8.7021 N   0  0  0  0  0  0  0  0  0  0  0  0
    2.7117   -0.2505   -6.8040 S   0  0  0  0  0  0  0  0  0  0  0  0
    2.6303    1.2180   -5.6662 C   0  0  0  0  0  0  0  0  0  0  0  0
    2.7462    0.3831   -8.1524 O   0  0  0  0  0  0  0  0  0  0  0  0
    1.3990   -0.9101   -6.5316 O   0  0  0  0  0  0  0  0  0  0  0  0
    3.9153   -0.9752   -6.3908 O   0  0  0  0  0  0  0  0  0  0  0  0
    3.6923    2.0163   -5.8088 F   0  0  0  0  0  0  0  0  0  0  0  0
    1.5194    1.9564   -5.9479 F   0  0  0  0  0  0  0  0  0  0  0  0
    2.5462    0.8422   -4.3838 F   0  0  0  0  0  0  0  0  0  0  0  0
   -4.1193   -0.1937   -4.1010 O   0  0  0  0  0  0  0  0  0  0  0  0
   -4.8742    0.8710   -3.5188 C   0  0  0  0  0  0  0  0  0  0  0  0
   -5.5498    0.3964   -2.8078 H   0  0  0  0  0  0  0  0  0  0  0  0
   -5.4579    1.4033   -4.2781 H   0  0  0  0  0  0  0  0  0  0  0  0
   -4.2211    1.5736   -2.9900 H   0  0  0  0  0  0  0  0  0  0  0  0
  1  7  1  0  0  0  0
  1  6  1  0  0  0  0
  2  1  2  0  0  0  0
  3  4  2  0  0  0  0
  3  2  1  0  0  0  0
  4  5  1  0  0  0  0
  5 10  1  0  0  0  0
  5  6  2  0  0  0  0
  6 21  1  0  0  0  0
  8  2  1  0  0  0  0
  9  4  1  0  0  0  0
 11  3  1  0  0  0  0
 12 11  1  0  0  0  0
 13 16  2  0  0  0  0
 13 17  1  0  0  0  0
 13 14  1  0  0  0  0
 14 20  1  0  0  0  0
 15 13  2  0  0  0  0
 18 14  1  0  0  0  0
 19 14  1  0  0  0  0
 21 22  1  0  0  0  0
 22 25  1  0  0  0  0
 22 23  1  0  0  0  0
 24 22  1  0  0  0  0
M  RAD  3  11   2  12   3  17   2
M  END
