Coordinates from ORCA-job p-CH3O-Ph-N2-X-OTf-B3LYPG-6-31G_dp-scan-d09-49-n400
 OpenBabel08281820593D

 25 24  0  0  0  0  0  0  0  0999 V2000
   -2.1571   -0.6455   -5.2686 C   0  0  0  0  0  0  0  0  0  0  0  0
   -1.1623   -0.1201   -6.0648 C   0  0  0  0  0  0  0  0  0  0  0  0
   -1.3715    1.1689   -6.6066 C   0  0  0  0  0  0  0  0  0  0  0  0
   -2.5366    1.9147   -6.3534 C   0  0  0  0  0  0  0  0  0  0  0  0
   -3.5164    1.3747   -5.5399 C   0  0  0  0  0  0  0  0  0  0  0  0
   -3.3310    0.0877   -4.9908 C   0  0  0  0  0  0  0  0  0  0  0  0
   -2.0473   -1.6297   -4.8287 H   0  0  0  0  0  0  0  0  0  0  0  0
   -0.2455   -0.6658   -6.2608 H   0  0  0  0  0  0  0  0  0  0  0  0
   -2.6568    2.9012   -6.7868 H   0  0  0  0  0  0  0  0  0  0  0  0
   -4.4117    1.9473   -5.3367 H   0  0  0  0  0  0  0  0  0  0  0  0
   -0.4289    1.7359   -7.4272 N   0  0  0  0  0  0  0  0  0  0  0  0
    0.3382    2.1668   -8.1217 N   0  0  0  0  0  0  0  0  0  0  0  0
    2.3164    0.1875   -6.6471 S   0  0  0  0  0  0  0  0  0  0  0  0
    4.0765    0.2786   -6.0633 C   0  0  0  0  0  0  0  0  0  0  0  0
    2.3433    0.8389   -7.9920 O   0  0  0  0  0  0  0  0  0  0  0  0
    1.5498    0.9729   -5.6434 O   0  0  0  0  0  0  0  0  0  0  0  0
    1.9967   -1.2564   -6.6649 O   0  0  0  0  0  0  0  0  0  0  0  0
    4.8833   -0.3928   -6.8952 F   0  0  0  0  0  0  0  0  0  0  0  0
    4.4865    1.5542   -6.0064 F   0  0  0  0  0  0  0  0  0  0  0  0
    4.1850   -0.2558   -4.8381 F   0  0  0  0  0  0  0  0  0  0  0  0
   -4.2166   -0.5251   -4.1933 O   0  0  0  0  0  0  0  0  0  0  0  0
   -5.4307    0.1413   -3.8373 C   0  0  0  0  0  0  0  0  0  0  0  0
   -5.9616   -0.5498   -3.1830 H   0  0  0  0  0  0  0  0  0  0  0  0
   -6.0414    0.3485   -4.7228 H   0  0  0  0  0  0  0  0  0  0  0  0
   -5.2259    1.0720   -3.2972 H   0  0  0  0  0  0  0  0  0  0  0  0
  1  6  1  0  0  0  0
  1  7  1  0  0  0  0
  2  1  2  0  0  0  0
  3  4  2  0  0  0  0
  3  2  1  0  0  0  0
  4  5  1  0  0  0  0
  5 10  1  0  0  0  0
  5  6  2  0  0  0  0
  6 21  1  0  0  0  0
  8  2  1  0  0  0  0
  9  4  1  0  0  0  0
 11  3  1  0  0  0  0
 12 11  1  0  0  0  0
 13 14  1  0  0  0  0
 13 16  1  0  0  0  0
 14 19  1  0  0  0  0
 14 20  1  0  0  0  0
 15 13  2  0  0  0  0
 17 13  2  0  0  0  0
 18 14  1  0  0  0  0
 21 22  1  0  0  0  0
 22 25  1  0  0  0  0
 22 23  1  0  0  0  0
 24 22  1  0  0  0  0
M  RAD  3  11   2  12   3  16   2
M  END
