Coordinates from ORCA-job p-CH3O-Ph-N2-X-OTf-B3LYPG-6-31G_dp-scan-d09-49-n400
 OpenBabel08281820593D

 25 24  0  0  0  0  0  0  0  0999 V2000
   -2.3312   -0.6806   -4.9287 C   0  0  0  0  0  0  0  0  0  0  0  0
   -1.2101   -0.3004   -5.6368 C   0  0  0  0  0  0  0  0  0  0  0  0
   -1.2364    0.9478   -6.2915 C   0  0  0  0  0  0  0  0  0  0  0  0
   -2.3541    1.8024   -6.2385 C   0  0  0  0  0  0  0  0  0  0  0  0
   -3.4693    1.4051   -5.5224 C   0  0  0  0  0  0  0  0  0  0  0  0
   -3.4652    0.1570   -4.8624 C   0  0  0  0  0  0  0  0  0  0  0  0
   -2.3603   -1.6289   -4.4048 H   0  0  0  0  0  0  0  0  0  0  0  0
   -0.3056   -0.8975   -5.6921 H   0  0  0  0  0  0  0  0  0  0  0  0
   -2.3376    2.7556   -6.7551 H   0  0  0  0  0  0  0  0  0  0  0  0
   -4.3312    2.0581   -5.4790 H   0  0  0  0  0  0  0  0  0  0  0  0
   -0.1620    1.3767   -7.0406 N   0  0  0  0  0  0  0  0  0  0  0  0
    0.6121    1.8371   -7.7116 N   0  0  0  0  0  0  0  0  0  0  0  0
    2.7118   -0.4342   -7.0234 S   0  0  0  0  0  0  0  0  0  0  0  0
    3.8924    0.7782   -6.2597 C   0  0  0  0  0  0  0  0  0  0  0  0
    2.2654    0.2739   -8.2629 O   0  0  0  0  0  0  0  0  0  0  0  0
    1.6254   -0.5023   -6.0018 O   0  0  0  0  0  0  0  0  0  0  0  0
    3.4928   -1.6549   -7.2323 O   0  0  0  0  0  0  0  0  0  0  0  0
    4.9300    1.0130   -7.0710 F   0  0  0  0  0  0  0  0  0  0  0  0
    3.2629    1.9512   -6.0315 F   0  0  0  0  0  0  0  0  0  0  0  0
    4.3590    0.3228   -5.0893 F   0  0  0  0  0  0  0  0  0  0  0  0
   -4.4930   -0.3186   -4.1445 O   0  0  0  0  0  0  0  0  0  0  0  0
   -5.6833    0.4622   -4.0082 C   0  0  0  0  0  0  0  0  0  0  0  0
   -6.3542   -0.1334   -3.3899 H   0  0  0  0  0  0  0  0  0  0  0  0
   -6.1492    0.6449   -4.9826 H   0  0  0  0  0  0  0  0  0  0  0  0
   -5.4750    1.4149   -3.5094 H   0  0  0  0  0  0  0  0  0  0  0  0
  1  6  1  0  0  0  0
  1  7  1  0  0  0  0
  2  1  2  0  0  0  0
  3  4  2  0  0  0  0
  3  2  1  0  0  0  0
  4  5  1  0  0  0  0
  5 10  1  0  0  0  0
  5  6  2  0  0  0  0
  6 21  1  0  0  0  0
  8  2  1  0  0  0  0
  9  4  1  0  0  0  0
 11  3  1  0  0  0  0
 12 11  1  0  0  0  0
 13 14  1  0  0  0  0
 13 16  1  0  0  0  0
 14 19  1  0  0  0  0
 14 20  1  0  0  0  0
 15 13  2  0  0  0  0
 17 13  2  0  0  0  0
 18 14  1  0  0  0  0
 21 22  1  0  0  0  0
 22 25  1  0  0  0  0
 22 23  1  0  0  0  0
 24 22  1  0  0  0  0
M  RAD  3  11   2  12   3  16   2
M  END
