Coordinates from ORCA-job p-CH3O-Ph-N2-X-OTf-B3LYPG-6-31G_dp-scan-d09-49-n400
 OpenBabel08281820593D

 25 24  0  0  0  0  0  0  0  0999 V2000
   -2.1811   -0.4802   -4.8624 C   0  0  0  0  0  0  0  0  0  0  0  0
   -1.0962    0.0757   -5.5063 C   0  0  0  0  0  0  0  0  0  0  0  0
   -1.2928    1.2995   -6.1828 C   0  0  0  0  0  0  0  0  0  0  0  0
   -2.5355    1.9591   -6.2091 C   0  0  0  0  0  0  0  0  0  0  0  0
   -3.6117    1.3837   -5.5578 C   0  0  0  0  0  0  0  0  0  0  0  0
   -3.4409    0.1563   -4.8808 C   0  0  0  0  0  0  0  0  0  0  0  0
   -2.0848   -1.4167   -4.3256 H   0  0  0  0  0  0  0  0  0  0  0  0
   -0.0981   -0.3566   -5.4814 H   0  0  0  0  0  0  0  0  0  0  0  0
   -2.6442    2.8991   -6.7383 H   0  0  0  0  0  0  0  0  0  0  0  0
   -4.5712    1.8840   -5.5756 H   0  0  0  0  0  0  0  0  0  0  0  0
   -0.2564    1.8828   -6.8743 N   0  0  0  0  0  0  0  0  0  0  0  0
    0.5720    2.3221   -7.4892 N   0  0  0  0  0  0  0  0  0  0  0  0
    2.4548   -0.1603   -6.7476 S   0  0  0  0  0  0  0  0  0  0  0  0
    4.2341    0.3157   -6.5208 C   0  0  0  0  0  0  0  0  0  0  0  0
    2.0499    0.5603   -7.9965 O   0  0  0  0  0  0  0  0  0  0  0  0
    1.7916    0.4053   -5.5369 O   0  0  0  0  0  0  0  0  0  0  0  0
    2.4512   -1.6254   -6.8413 O   0  0  0  0  0  0  0  0  0  0  0  0
    4.9701   -0.1049   -7.5580 F   0  0  0  0  0  0  0  0  0  0  0  0
    4.3537    1.6508   -6.4291 F   0  0  0  0  0  0  0  0  0  0  0  0
    4.7252   -0.2302   -5.3997 F   0  0  0  0  0  0  0  0  0  0  0  0
   -4.4179   -0.4809   -4.2205 O   0  0  0  0  0  0  0  0  0  0  0  0
   -5.7308    0.0846   -4.1769 C   0  0  0  0  0  0  0  0  0  0  0  0
   -6.3292   -0.6115   -3.5901 H   0  0  0  0  0  0  0  0  0  0  0  0
   -6.1553    0.1739   -5.1828 H   0  0  0  0  0  0  0  0  0  0  0  0
   -5.7222    1.0639   -3.6862 H   0  0  0  0  0  0  0  0  0  0  0  0
  1  7  1  0  0  0  0
  2  8  1  0  0  0  0
  2  1  2  0  0  0  0
  3  2  1  0  0  0  0
  4  3  2  0  0  0  0
  4  5  1  0  0  0  0
  5  6  2  0  0  0  0
  6  1  1  0  0  0  0
  6 21  1  0  0  0  0
  9  4  1  0  0  0  0
 10  5  1  0  0  0  0
 11  3  1  0  0  0  0
 12 11  1  0  0  0  0
 13 14  1  0  0  0  0
 13 16  1  0  0  0  0
 14 19  1  0  0  0  0
 14 20  1  0  0  0  0
 15 13  2  0  0  0  0
 17 13  2  0  0  0  0
 18 14  1  0  0  0  0
 21 22  1  0  0  0  0
 22 25  1  0  0  0  0
 22 23  1  0  0  0  0
 24 22  1  0  0  0  0
M  RAD  3  11   2  12   3  16   2
M  END
