Coordinates from ORCA-job p-CH3O-Ph-N2-X-OTf-B3LYPG-6-31G_dp-scan-d09-49-n400
 OpenBabel08281820593D

 25 24  0  0  0  0  0  0  0  0999 V2000
   -1.7626   -0.0706   -4.7966 C   0  0  0  0  0  0  0  0  0  0  0  0
   -0.8267    0.7682   -5.3709 C   0  0  0  0  0  0  0  0  0  0  0  0
   -1.3439    1.8339   -6.1439 C   0  0  0  0  0  0  0  0  0  0  0  0
   -2.7192    2.0727   -6.3437 C   0  0  0  0  0  0  0  0  0  0  0  0
   -3.6233    1.2108   -5.7575 C   0  0  0  0  0  0  0  0  0  0  0  0
   -3.1472    0.1290   -4.9771 C   0  0  0  0  0  0  0  0  0  0  0  0
   -1.4411   -0.9114   -4.1907 H   0  0  0  0  0  0  0  0  0  0  0  0
    0.3021    0.6140   -5.2303 H   0  0  0  0  0  0  0  0  0  0  0  0
   -3.0548    2.9089   -6.9480 H   0  0  0  0  0  0  0  0  0  0  0  0
   -4.6837    1.3729   -5.9034 H   0  0  0  0  0  0  0  0  0  0  0  0
   -0.4561    2.6958   -6.7342 N   0  0  0  0  0  0  0  0  0  0  0  0
    0.3301    3.3409   -7.1972 N   0  0  0  0  0  0  0  0  0  0  0  0
    2.6803    0.8376   -6.1225 S   0  0  0  0  0  0  0  0  0  0  0  0
    3.4076   -0.7524   -6.7472 C   0  0  0  0  0  0  0  0  0  0  0  0
    1.9046    1.3457   -7.2882 O   0  0  0  0  0  0  0  0  0  0  0  0
    3.8238    1.6455   -5.6901 O   0  0  0  0  0  0  0  0  0  0  0  0
    1.7691    0.3729   -5.0202 O   0  0  0  0  0  0  0  0  0  0  0  0
    2.4348   -1.5804   -7.1655 F   0  0  0  0  0  0  0  0  0  0  0  0
    4.2331   -0.5178   -7.7759 F   0  0  0  0  0  0  0  0  0  0  0  0
    4.0969   -1.3682   -5.7775 F   0  0  0  0  0  0  0  0  0  0  0  0
   -3.9456   -0.7578   -4.3681 O   0  0  0  0  0  0  0  0  0  0  0  0
   -5.3653   -0.6424   -4.4920 C   0  0  0  0  0  0  0  0  0  0  0  0
   -5.7770   -1.4717   -3.9180 H   0  0  0  0  0  0  0  0  0  0  0  0
   -5.6788   -0.7307   -5.5376 H   0  0  0  0  0  0  0  0  0  0  0  0
   -5.7226    0.3048   -4.0736 H   0  0  0  0  0  0  0  0  0  0  0  0
  1  7  1  0  0  0  0
  2  8  1  0  0  0  0
  2  1  2  0  0  0  0
  3  2  1  0  0  0  0
  4  3  2  0  0  0  0
  4  5  1  0  0  0  0
  5  6  2  0  0  0  0
  6  1  1  0  0  0  0
  6 21  1  0  0  0  0
  9  4  1  0  0  0  0
 10  5  1  0  0  0  0
 11  3  1  0  0  0  0
 12 11  1  0  0  0  0
 13 16  2  0  0  0  0
 13 17  1  0  0  0  0
 14 13  1  0  0  0  0
 14 20  1  0  0  0  0
 15 13  2  0  0  0  0
 18 14  1  0  0  0  0
 19 14  1  0  0  0  0
 22 21  1  0  0  0  0
 22 25  1  0  0  0  0
 22 23  1  0  0  0  0
 24 22  1  0  0  0  0
M  RAD  3  11   2  12   3  17   2
M  END
