Coordinates from ORCA-job p-CH3O-Ph-N2-X-OTf-B3LYPG-6-31G_dp-scan-d09-49-n400
 OpenBabel08281820593D

 25 24  0  0  0  0  0  0  0  0999 V2000
   -2.2487   -0.5463   -4.8885 C   0  0  0  0  0  0  0  0  0  0  0  0
   -1.1266   -0.0367   -5.5071 C   0  0  0  0  0  0  0  0  0  0  0  0
   -1.2419    1.2222   -6.1362 C   0  0  0  0  0  0  0  0  0  0  0  0
   -2.4383    1.9614   -6.1419 C   0  0  0  0  0  0  0  0  0  0  0  0
   -3.5543    1.4290   -5.5213 C   0  0  0  0  0  0  0  0  0  0  0  0
   -3.4661    0.1684   -4.8910 C   0  0  0  0  0  0  0  0  0  0  0  0
   -2.2157   -1.5055   -4.3852 H   0  0  0  0  0  0  0  0  0  0  0  0
   -0.1554   -0.5301   -5.4996 H   0  0  0  0  0  0  0  0  0  0  0  0
   -2.4825    2.9268   -6.6333 H   0  0  0  0  0  0  0  0  0  0  0  0
   -4.4808    1.9882   -5.5259 H   0  0  0  0  0  0  0  0  0  0  0  0
   -0.1553    1.7595   -6.7852 N   0  0  0  0  0  0  0  0  0  0  0  0
    0.7519    2.1010   -7.3518 N   0  0  0  0  0  0  0  0  0  0  0  0
    2.5466   -0.4380   -6.7632 S   0  0  0  0  0  0  0  0  0  0  0  0
    4.0933    0.5693   -6.5701 C   0  0  0  0  0  0  0  0  0  0  0  0
    1.8940    0.1770   -7.9663 O   0  0  0  0  0  0  0  0  0  0  0  0
    1.7997   -0.1324   -5.5094 O   0  0  0  0  0  0  0  0  0  0  0  0
    2.9961   -1.8216   -6.9376 O   0  0  0  0  0  0  0  0  0  0  0  0
    4.8841    0.4404   -7.6425 F   0  0  0  0  0  0  0  0  0  0  0  0
    3.7794    1.8729   -6.4321 F   0  0  0  0  0  0  0  0  0  0  0  0
    4.7790    0.1862   -5.4851 F   0  0  0  0  0  0  0  0  0  0  0  0
   -4.4871   -0.4313   -4.2620 O   0  0  0  0  0  0  0  0  0  0  0  0
   -5.7619    0.2141   -4.2037 C   0  0  0  0  0  0  0  0  0  0  0  0
   -6.4090   -0.4669   -3.6519 H   0  0  0  0  0  0  0  0  0  0  0  0
   -6.1697    0.3735   -5.2078 H   0  0  0  0  0  0  0  0  0  0  0  0
   -5.6964    1.1691   -3.6713 H   0  0  0  0  0  0  0  0  0  0  0  0
  1  7  1  0  0  0  0
  2  8  1  0  0  0  0
  2  1  2  0  0  0  0
  3  2  1  0  0  0  0
  4  3  2  0  0  0  0
  4  5  1  0  0  0  0
  5  6  2  0  0  0  0
  6  1  1  0  0  0  0
  6 21  1  0  0  0  0
  9  4  1  0  0  0  0
 10  5  1  0  0  0  0
 11  3  1  0  0  0  0
 12 11  1  0  0  0  0
 13 14  1  0  0  0  0
 13 16  1  0  0  0  0
 14 19  1  0  0  0  0
 14 20  1  0  0  0  0
 15 13  2  0  0  0  0
 17 13  2  0  0  0  0
 18 14  1  0  0  0  0
 21 22  1  0  0  0  0
 22 25  1  0  0  0  0
 22 23  1  0  0  0  0
 24 22  1  0  0  0  0
M  RAD  3  11   2  12   3  16   2
M  END
