Coordinates from ORCA-job p-CH3O-Ph-N2-X-OTf-B3LYPG-6-31G_dp-scan-d09-49-n400
 OpenBabel08281820593D

 25 24  0  0  0  0  0  0  0  0999 V2000
   -2.3517   -0.7277   -4.9657 C   0  0  0  0  0  0  0  0  0  0  0  0
   -1.2322   -0.3839   -5.6946 C   0  0  0  0  0  0  0  0  0  0  0  0
   -1.2216    0.8704   -6.3365 C   0  0  0  0  0  0  0  0  0  0  0  0
   -2.3029    1.7681   -6.2475 C   0  0  0  0  0  0  0  0  0  0  0  0
   -3.4164    1.4087   -5.5090 C   0  0  0  0  0  0  0  0  0  0  0  0
   -3.4489    0.1539   -4.8634 C   0  0  0  0  0  0  0  0  0  0  0  0
   -2.4074   -1.6809   -4.4528 H   0  0  0  0  0  0  0  0  0  0  0  0
   -0.3605   -1.0219   -5.7761 H   0  0  0  0  0  0  0  0  0  0  0  0
   -2.2594    2.7260   -6.7537 H   0  0  0  0  0  0  0  0  0  0  0  0
   -4.2492    2.0964   -5.4376 H   0  0  0  0  0  0  0  0  0  0  0  0
   -0.1498    1.2691   -7.1079 N   0  0  0  0  0  0  0  0  0  0  0  0
    0.5939    1.7360   -7.8088 N   0  0  0  0  0  0  0  0  0  0  0  0
    2.7599   -0.4406   -7.0728 S   0  0  0  0  0  0  0  0  0  0  0  0
    3.7601    0.8446   -6.1802 C   0  0  0  0  0  0  0  0  0  0  0  0
    2.3467    0.2715   -8.3210 O   0  0  0  0  0  0  0  0  0  0  0  0
    1.6094   -0.6413   -6.1440 O   0  0  0  0  0  0  0  0  0  0  0  0
    3.6704   -1.5723   -7.2545 O   0  0  0  0  0  0  0  0  0  0  0  0
    4.8361    1.1986   -6.8921 F   0  0  0  0  0  0  0  0  0  0  0  0
    3.0102    1.9512   -5.9753 F   0  0  0  0  0  0  0  0  0  0  0  0
    4.1669    0.3949   -4.9856 F   0  0  0  0  0  0  0  0  0  0  0  0
   -4.4789   -0.2891   -4.1279 O   0  0  0  0  0  0  0  0  0  0  0  0
   -5.6343    0.5361   -3.9578 C   0  0  0  0  0  0  0  0  0  0  0  0
   -6.3154   -0.0402   -3.3324 H   0  0  0  0  0  0  0  0  0  0  0  0
   -6.1124    0.7491   -4.9200 H   0  0  0  0  0  0  0  0  0  0  0  0
   -5.3782    1.4737   -3.4527 H   0  0  0  0  0  0  0  0  0  0  0  0
  1  6  1  0  0  0  0
  1  7  1  0  0  0  0
  2  1  2  0  0  0  0
  3  4  2  0  0  0  0
  3  2  1  0  0  0  0
  4  5  1  0  0  0  0
  5 10  1  0  0  0  0
  5  6  2  0  0  0  0
  6 21  1  0  0  0  0
  8  2  1  0  0  0  0
  9  4  1  0  0  0  0
 11  3  1  0  0  0  0
 12 11  1  0  0  0  0
 13 14  1  0  0  0  0
 13 16  1  0  0  0  0
 14 19  1  0  0  0  0
 14 20  1  0  0  0  0
 15 13  2  0  0  0  0
 17 13  2  0  0  0  0
 18 14  1  0  0  0  0
 21 22  1  0  0  0  0
 22 25  1  0  0  0  0
 22 23  1  0  0  0  0
 24 22  1  0  0  0  0
M  RAD  3  11   2  12   3  16   2
M  END
