Coordinates from ORCA-job p-CH3O-Ph-N2-X-OTf-B3LYPG-6-31G_dp-scan-d09-49-n400
 OpenBabel08281820593D

 25 24  0  0  0  0  0  0  0  0999 V2000
   -2.2065   -0.6617   -5.2515 C   0  0  0  0  0  0  0  0  0  0  0  0
   -1.1856   -0.1436   -6.0187 C   0  0  0  0  0  0  0  0  0  0  0  0
   -1.3543    1.1581   -6.5426 C   0  0  0  0  0  0  0  0  0  0  0  0
   -2.5077    1.9244   -6.2976 C   0  0  0  0  0  0  0  0  0  0  0  0
   -3.5154    1.3922   -5.5131 C   0  0  0  0  0  0  0  0  0  0  0  0
   -3.3704    0.0916   -4.9850 C   0  0  0  0  0  0  0  0  0  0  0  0
   -2.1266   -1.6552   -4.8264 H   0  0  0  0  0  0  0  0  0  0  0  0
   -0.2735   -0.6985   -6.1987 H   0  0  0  0  0  0  0  0  0  0  0  0
   -2.5982    2.9203   -6.7164 H   0  0  0  0  0  0  0  0  0  0  0  0
   -4.4016    1.9813   -5.3167 H   0  0  0  0  0  0  0  0  0  0  0  0
   -0.3889    1.7169   -7.3436 N   0  0  0  0  0  0  0  0  0  0  0  0
    0.3805    2.1499   -8.0346 N   0  0  0  0  0  0  0  0  0  0  0  0
    2.3616    0.0758   -6.6652 S   0  0  0  0  0  0  0  0  0  0  0  0
    4.1162    0.3591   -6.1292 C   0  0  0  0  0  0  0  0  0  0  0  0
    2.2845    0.7190   -8.0137 O   0  0  0  0  0  0  0  0  0  0  0  0
    1.5499    0.7963   -5.6463 O   0  0  0  0  0  0  0  0  0  0  0  0
    2.1937   -1.3895   -6.6652 O   0  0  0  0  0  0  0  0  0  0  0  0
    4.9688   -0.2280   -6.9791 F   0  0  0  0  0  0  0  0  0  0  0  0
    4.3884    1.6725   -6.0905 F   0  0  0  0  0  0  0  0  0  0  0  0
    4.3146   -0.1499   -4.9046 F   0  0  0  0  0  0  0  0  0  0  0  0
   -4.2859   -0.5167   -4.2182 O   0  0  0  0  0  0  0  0  0  0  0  0
   -5.4937    0.1687   -3.8772 C   0  0  0  0  0  0  0  0  0  0  0  0
   -6.0557   -0.5245   -3.2516 H   0  0  0  0  0  0  0  0  0  0  0  0
   -6.0775    0.4089   -4.7724 H   0  0  0  0  0  0  0  0  0  0  0  0
   -5.2822    1.0827   -3.3118 H   0  0  0  0  0  0  0  0  0  0  0  0
  1  6  1  0  0  0  0
  1  7  1  0  0  0  0
  2  1  2  0  0  0  0
  3  4  2  0  0  0  0
  3  2  1  0  0  0  0
  4  5  1  0  0  0  0
  5 10  1  0  0  0  0
  5  6  2  0  0  0  0
  6 21  1  0  0  0  0
  8  2  1  0  0  0  0
  9  4  1  0  0  0  0
 11  3  1  0  0  0  0
 12 11  1  0  0  0  0
 13 14  1  0  0  0  0
 13 16  1  0  0  0  0
 14 19  1  0  0  0  0
 14 20  1  0  0  0  0
 15 13  2  0  0  0  0
 17 13  2  0  0  0  0
 18 14  1  0  0  0  0
 21 22  1  0  0  0  0
 22 25  1  0  0  0  0
 22 23  1  0  0  0  0
 24 22  1  0  0  0  0
M  RAD  3  11   2  12   3  16   2
M  END
