Coordinates from ORCA-job p-CH3O-Ph-N2-X-OTf-B3LYPG-6-31G_dp-scan-d09-49-n400
 OpenBabel08281820593D

 25 24  0  0  0  0  0  0  0  0999 V2000
   -2.1853   -0.6558   -5.2645 C   0  0  0  0  0  0  0  0  0  0  0  0
   -1.1762   -0.1339   -6.0448 C   0  0  0  0  0  0  0  0  0  0  0  0
   -1.3617    1.1639   -6.5734 C   0  0  0  0  0  0  0  0  0  0  0  0
   -2.5189    1.9220   -6.3213 C   0  0  0  0  0  0  0  0  0  0  0  0
   -3.5139    1.3859   -5.5235 C   0  0  0  0  0  0  0  0  0  0  0  0
   -3.3521    0.0897   -4.9894 C   0  0  0  0  0  0  0  0  0  0  0  0
   -2.0929   -1.6464   -4.8352 H   0  0  0  0  0  0  0  0  0  0  0  0
   -0.2637   -0.6859   -6.2344 H   0  0  0  0  0  0  0  0  0  0  0  0
   -2.6218    2.9150   -6.7443 H   0  0  0  0  0  0  0  0  0  0  0  0
   -4.4030    1.9686   -5.3215 H   0  0  0  0  0  0  0  0  0  0  0  0
   -0.4069    1.7265   -7.3837 N   0  0  0  0  0  0  0  0  0  0  0  0
    0.3621    2.1565   -8.0769 N   0  0  0  0  0  0  0  0  0  0  0  0
    2.3383    0.1210   -6.6544 S   0  0  0  0  0  0  0  0  0  0  0  0
    4.0975    0.3263   -6.0974 C   0  0  0  0  0  0  0  0  0  0  0  0
    2.3066    0.7651   -8.0039 O   0  0  0  0  0  0  0  0  0  0  0  0
    1.5435    0.8727   -5.6454 O   0  0  0  0  0  0  0  0  0  0  0  0
    2.1063   -1.3373   -6.6574 O   0  0  0  0  0  0  0  0  0  0  0  0
    4.9329   -0.2995   -6.9365 F   0  0  0  0  0  0  0  0  0  0  0  0
    4.4272    1.6260   -6.0560 F   0  0  0  0  0  0  0  0  0  0  0  0
    4.2579   -0.1900   -4.8701 F   0  0  0  0  0  0  0  0  0  0  0  0
   -4.2541   -0.5213   -4.2089 O   0  0  0  0  0  0  0  0  0  0  0  0
   -5.4632    0.1565   -3.8578 C   0  0  0  0  0  0  0  0  0  0  0  0
   -6.0115   -0.5366   -3.2202 H   0  0  0  0  0  0  0  0  0  0  0  0
   -6.0602    0.3851   -4.7474 H   0  0  0  0  0  0  0  0  0  0  0  0
   -5.2524    1.0764   -3.3017 H   0  0  0  0  0  0  0  0  0  0  0  0
  1  6  1  0  0  0  0
  1  7  1  0  0  0  0
  2  1  2  0  0  0  0
  3  4  2  0  0  0  0
  3  2  1  0  0  0  0
  4  5  1  0  0  0  0
  5 10  1  0  0  0  0
  5  6  2  0  0  0  0
  6 21  1  0  0  0  0
  8  2  1  0  0  0  0
  9  4  1  0  0  0  0
 11  3  1  0  0  0  0
 12 11  1  0  0  0  0
 13 14  1  0  0  0  0
 13 16  1  0  0  0  0
 14 19  1  0  0  0  0
 14 20  1  0  0  0  0
 15 13  2  0  0  0  0
 17 13  2  0  0  0  0
 18 14  1  0  0  0  0
 21 22  1  0  0  0  0
 22 25  1  0  0  0  0
 22 23  1  0  0  0  0
 24 22  1  0  0  0  0
M  RAD  3  11   2  12   3  16   2
M  END
