Coordinates from ORCA-job p-CH3O-Ph-N2-X-OTf-B3LYPG-6-31G_dp-scan-d09-49-n400
 OpenBabel08281820593D

 25 24  0  0  0  0  0  0  0  0999 V2000
   -2.2126   -0.5860   -5.0428 C   0  0  0  0  0  0  0  0  0  0  0  0
   -1.1455   -0.0545   -5.7349 C   0  0  0  0  0  0  0  0  0  0  0  0
   -1.3152    1.2154   -6.3296 C   0  0  0  0  0  0  0  0  0  0  0  0
   -2.5165    1.9407   -6.2266 C   0  0  0  0  0  0  0  0  0  0  0  0
   -3.5736    1.3936   -5.5216 C   0  0  0  0  0  0  0  0  0  0  0  0
   -3.4283    0.1218   -4.9266 C   0  0  0  0  0  0  0  0  0  0  0  0
   -2.1334   -1.5558   -4.5660 H   0  0  0  0  0  0  0  0  0  0  0  0
   -0.1841   -0.5513   -5.7967 H   0  0  0  0  0  0  0  0  0  0  0  0
   -2.6074    2.9133   -6.6969 H   0  0  0  0  0  0  0  0  0  0  0  0
   -4.4985    1.9491   -5.4364 H   0  0  0  0  0  0  0  0  0  0  0  0
   -0.3073    1.7800   -7.0758 N   0  0  0  0  0  0  0  0  0  0  0  0
    0.4747    2.2304   -7.7413 N   0  0  0  0  0  0  0  0  0  0  0  0
    2.4429   -0.0670   -6.7300 S   0  0  0  0  0  0  0  0  0  0  0  0
    4.2082    0.3630   -6.3515 C   0  0  0  0  0  0  0  0  0  0  0  0
    2.1767    0.6175   -8.0345 O   0  0  0  0  0  0  0  0  0  0  0  0
    1.6822    0.5520   -5.6071 O   0  0  0  0  0  0  0  0  0  0  0  0
    2.4023   -1.5359   -6.7745 O   0  0  0  0  0  0  0  0  0  0  0  0
    5.0229   -0.1151   -7.3012 F   0  0  0  0  0  0  0  0  0  0  0  0
    4.3637    1.6954   -6.2888 F   0  0  0  0  0  0  0  0  0  0  0  0
    4.5723   -0.1607   -5.1725 F   0  0  0  0  0  0  0  0  0  0  0  0
   -4.3896   -0.4964   -4.2267 O   0  0  0  0  0  0  0  0  0  0  0  0
   -5.6552    0.1434   -4.0414 C   0  0  0  0  0  0  0  0  0  0  0  0
   -6.2480   -0.5497   -3.4451 H   0  0  0  0  0  0  0  0  0  0  0  0
   -6.1530    0.3180   -5.0014 H   0  0  0  0  0  0  0  0  0  0  0  0
   -5.5433    1.0891   -3.5003 H   0  0  0  0  0  0  0  0  0  0  0  0
  1  6  1  0  0  0  0
  1  7  1  0  0  0  0
  2  1  2  0  0  0  0
  3  4  2  0  0  0  0
  3  2  1  0  0  0  0
  4  5  1  0  0  0  0
  5 10  1  0  0  0  0
  5  6  2  0  0  0  0
  6 21  1  0  0  0  0
  8  2  1  0  0  0  0
  9  4  1  0  0  0  0
 11  3  1  0  0  0  0
 12 11  1  0  0  0  0
 13 14  1  0  0  0  0
 13 16  1  0  0  0  0
 14 19  1  0  0  0  0
 14 20  1  0  0  0  0
 15 13  2  0  0  0  0
 17 13  2  0  0  0  0
 18 14  1  0  0  0  0
 21 22  1  0  0  0  0
 22 25  1  0  0  0  0
 22 23  1  0  0  0  0
 24 22  1  0  0  0  0
M  RAD  3  11   2  12   3  16   2
M  END
