Coordinates from ORCA-job p-CH3O-Ph-N2-X-OTf-B3LYPG-6-31G_dp-scan-d09-49-n400
 OpenBabel08281820593D

 25 24  0  0  0  0  0  0  0  0999 V2000
   -2.1739   -0.4778   -4.8697 C   0  0  0  0  0  0  0  0  0  0  0  0
   -1.0917    0.0837   -5.5133 C   0  0  0  0  0  0  0  0  0  0  0  0
   -1.2936    1.3084   -6.1868 C   0  0  0  0  0  0  0  0  0  0  0  0
   -2.5387    1.9634   -6.2099 C   0  0  0  0  0  0  0  0  0  0  0  0
   -3.6119    1.3827   -5.5587 C   0  0  0  0  0  0  0  0  0  0  0  0
   -3.4359    0.1543   -4.8849 C   0  0  0  0  0  0  0  0  0  0  0  0
   -2.0733   -1.4153   -4.3353 H   0  0  0  0  0  0  0  0  0  0  0  0
   -0.0926   -0.3456   -5.4891 H   0  0  0  0  0  0  0  0  0  0  0  0
   -2.6515    2.9043   -6.7368 H   0  0  0  0  0  0  0  0  0  0  0  0
   -4.5733    1.8796   -5.5739 H   0  0  0  0  0  0  0  0  0  0  0  0
   -0.2604    1.8968   -6.8788 N   0  0  0  0  0  0  0  0  0  0  0  0
    0.5664    2.3362   -7.4956 N   0  0  0  0  0  0  0  0  0  0  0  0
    2.4437   -0.1415   -6.7334 S   0  0  0  0  0  0  0  0  0  0  0  0
    4.2341    0.2982   -6.5208 C   0  0  0  0  0  0  0  0  0  0  0  0
    2.0478    0.5703   -7.9902 O   0  0  0  0  0  0  0  0  0  0  0  0
    1.7973    0.4526   -5.5275 O   0  0  0  0  0  0  0  0  0  0  0  0
    2.4075   -1.6078   -6.8075 O   0  0  0  0  0  0  0  0  0  0  0  0
    4.9557   -0.1525   -7.5554 F   0  0  0  0  0  0  0  0  0  0  0  0
    4.3834    1.6312   -6.4475 F   0  0  0  0  0  0  0  0  0  0  0  0
    4.7179   -0.2437   -5.3946 F   0  0  0  0  0  0  0  0  0  0  0  0
   -4.4096   -0.4880   -4.2247 O   0  0  0  0  0  0  0  0  0  0  0  0
   -5.7244    0.0730   -4.1775 C   0  0  0  0  0  0  0  0  0  0  0  0
   -6.3193   -0.6264   -3.5911 H   0  0  0  0  0  0  0  0  0  0  0  0
   -6.1511    0.1630   -5.1824 H   0  0  0  0  0  0  0  0  0  0  0  0
   -5.7182    1.0512   -3.6847 H   0  0  0  0  0  0  0  0  0  0  0  0
  1  7  1  0  0  0  0
  2  8  1  0  0  0  0
  2  1  2  0  0  0  0
  3  2  1  0  0  0  0
  4  3  2  0  0  0  0
  4  5  1  0  0  0  0
  5  6  2  0  0  0  0
  6  1  1  0  0  0  0
  6 21  1  0  0  0  0
  9  4  1  0  0  0  0
 10  5  1  0  0  0  0
 11  3  1  0  0  0  0
 12 11  1  0  0  0  0
 13 14  1  0  0  0  0
 13 16  1  0  0  0  0
 14 19  1  0  0  0  0
 14 20  1  0  0  0  0
 15 13  2  0  0  0  0
 17 13  2  0  0  0  0
 18 14  1  0  0  0  0
 21 22  1  0  0  0  0
 22 25  1  0  0  0  0
 22 23  1  0  0  0  0
 24 22  1  0  0  0  0
M  RAD  3  11   2  12   3  16   2
M  END
