Coordinates from ORCA-job p-CH3O-Ph-N2-X-OTf-B3LYPG-6-31G_dp-scan-d09-49-n400
 OpenBabel08281820593D

 25 24  0  0  0  0  0  0  0  0999 V2000
   -2.1906   -0.6584   -5.2631 C   0  0  0  0  0  0  0  0  0  0  0  0
   -1.1798   -0.1380   -6.0422 C   0  0  0  0  0  0  0  0  0  0  0  0
   -1.3619    1.1604   -6.5703 C   0  0  0  0  0  0  0  0  0  0  0  0
   -2.5176    1.9210   -6.3186 C   0  0  0  0  0  0  0  0  0  0  0  0
   -3.5146    1.3863   -5.5222 C   0  0  0  0  0  0  0  0  0  0  0  0
   -3.3562    0.0893   -4.9887 C   0  0  0  0  0  0  0  0  0  0  0  0
   -2.1007   -1.6496   -4.8345 H   0  0  0  0  0  0  0  0  0  0  0  0
   -0.2681   -0.6917   -6.2310 H   0  0  0  0  0  0  0  0  0  0  0  0
   -2.6179    2.9145   -6.7408 H   0  0  0  0  0  0  0  0  0  0  0  0
   -4.4026    1.9708   -5.3206 H   0  0  0  0  0  0  0  0  0  0  0  0
   -0.4049    1.7222   -7.3787 N   0  0  0  0  0  0  0  0  0  0  0  0
    0.3640    2.1543   -8.0706 N   0  0  0  0  0  0  0  0  0  0  0  0
    2.3438    0.1169   -6.6566 S   0  0  0  0  0  0  0  0  0  0  0  0
    4.1023    0.3320   -6.1014 C   0  0  0  0  0  0  0  0  0  0  0  0
    2.3055    0.7629   -8.0050 O   0  0  0  0  0  0  0  0  0  0  0  0
    1.5464    0.8622   -5.6453 O   0  0  0  0  0  0  0  0  0  0  0  0
    2.1218   -1.3427   -6.6615 O   0  0  0  0  0  0  0  0  0  0  0  0
    4.9407   -0.2868   -6.9428 F   0  0  0  0  0  0  0  0  0  0  0  0
    4.4245    1.6336   -6.0574 F   0  0  0  0  0  0  0  0  0  0  0  0
    4.2671   -0.1860   -4.8754 F   0  0  0  0  0  0  0  0  0  0  0  0
   -4.2602   -0.5202   -4.2097 O   0  0  0  0  0  0  0  0  0  0  0  0
   -5.4683    0.1600   -3.8593 C   0  0  0  0  0  0  0  0  0  0  0  0
   -6.0187   -0.5324   -3.2227 H   0  0  0  0  0  0  0  0  0  0  0  0
   -6.0638    0.3905   -4.7493 H   0  0  0  0  0  0  0  0  0  0  0  0
   -5.2560    1.0790   -3.3023 H   0  0  0  0  0  0  0  0  0  0  0  0
  1  6  1  0  0  0  0
  1  7  1  0  0  0  0
  2  1  2  0  0  0  0
  3  4  2  0  0  0  0
  3  2  1  0  0  0  0
  4  5  1  0  0  0  0
  5 10  1  0  0  0  0
  5  6  2  0  0  0  0
  6 21  1  0  0  0  0
  8  2  1  0  0  0  0
  9  4  1  0  0  0  0
 11  3  1  0  0  0  0
 12 11  1  0  0  0  0
 13 14  1  0  0  0  0
 13 16  1  0  0  0  0
 14 19  1  0  0  0  0
 14 20  1  0  0  0  0
 15 13  2  0  0  0  0
 17 13  2  0  0  0  0
 18 14  1  0  0  0  0
 21 22  1  0  0  0  0
 22 25  1  0  0  0  0
 22 23  1  0  0  0  0
 24 22  1  0  0  0  0
M  RAD  3  11   2  12   3  16   2
M  END
