Coordinates from ORCA-job p-CH3O-Ph-N2-X-OTf-B3LYPG-6-31G_dp-scan-d09-49-n400
 OpenBabel08281820593D

 25 24  0  0  0  0  0  0  0  0999 V2000
   -2.2319   -0.6421   -5.1542 C   0  0  0  0  0  0  0  0  0  0  0  0
   -1.1796   -0.1261   -5.8797 C   0  0  0  0  0  0  0  0  0  0  0  0
   -1.3305    1.1671   -6.4277 C   0  0  0  0  0  0  0  0  0  0  0  0
   -2.4991    1.9290   -6.2464 C   0  0  0  0  0  0  0  0  0  0  0  0
   -3.5402    1.3987   -5.5052 C   0  0  0  0  0  0  0  0  0  0  0  0
   -3.4131    0.1050   -4.9556 C   0  0  0  0  0  0  0  0  0  0  0  0
   -2.1658   -1.6290   -4.7119 H   0  0  0  0  0  0  0  0  0  0  0  0
   -0.2470   -0.6621   -6.0023 H   0  0  0  0  0  0  0  0  0  0  0  0
   -2.5766    2.9184   -6.6826 H   0  0  0  0  0  0  0  0  0  0  0  0
   -4.4386    1.9838   -5.3584 H   0  0  0  0  0  0  0  0  0  0  0  0
   -0.3380    1.7205   -7.2012 N   0  0  0  0  0  0  0  0  0  0  0  0
    0.4301    2.1676   -7.8849 N   0  0  0  0  0  0  0  0  0  0  0  0
    2.4250   -0.0257   -6.7147 S   0  0  0  0  0  0  0  0  0  0  0  0
    4.1688    0.3987   -6.2417 C   0  0  0  0  0  0  0  0  0  0  0  0
    2.2360    0.6430   -8.0402 O   0  0  0  0  0  0  0  0  0  0  0  0
    1.6033    0.6073   -5.6445 O   0  0  0  0  0  0  0  0  0  0  0  0
    2.3806   -1.4960   -6.7444 O   0  0  0  0  0  0  0  0  0  0  0  0
    5.0327   -0.0915   -7.1405 F   0  0  0  0  0  0  0  0  0  0  0  0
    4.3283    1.7304   -6.1805 F   0  0  0  0  0  0  0  0  0  0  0  0
    4.4631   -0.1176   -5.0400 F   0  0  0  0  0  0  0  0  0  0  0  0
   -4.3613   -0.5008   -4.2275 O   0  0  0  0  0  0  0  0  0  0  0  0
   -5.5901    0.1786   -3.9569 C   0  0  0  0  0  0  0  0  0  0  0  0
   -6.1787   -0.5120   -3.3535 H   0  0  0  0  0  0  0  0  0  0  0  0
   -6.1285    0.4046   -4.8837 H   0  0  0  0  0  0  0  0  0  0  0  0
   -5.4146    1.1004   -3.3919 H   0  0  0  0  0  0  0  0  0  0  0  0
  1  6  1  0  0  0  0
  1  7  1  0  0  0  0
  2  1  2  0  0  0  0
  3  4  2  0  0  0  0
  3  2  1  0  0  0  0
  4  5  1  0  0  0  0
  5 10  1  0  0  0  0
  5  6  2  0  0  0  0
  6 21  1  0  0  0  0
  8  2  1  0  0  0  0
  9  4  1  0  0  0  0
 11  3  1  0  0  0  0
 12 11  1  0  0  0  0
 13 14  1  0  0  0  0
 13 16  1  0  0  0  0
 14 19  1  0  0  0  0
 14 20  1  0  0  0  0
 15 13  2  0  0  0  0
 17 13  2  0  0  0  0
 18 14  1  0  0  0  0
 21 22  1  0  0  0  0
 22 25  1  0  0  0  0
 22 23  1  0  0  0  0
 24 22  1  0  0  0  0
M  RAD  3  11   2  12   3  16   2
M  END
