Coordinates from ORCA-job p-CH3O-Ph-N2-X-OTf-B3LYPG-6-31G_dp-scan-d09-49-n400
 OpenBabel08281820593D

 25 24  0  0  0  0  0  0  0  0999 V2000
   -2.2725   -0.5721   -4.8924 C   0  0  0  0  0  0  0  0  0  0  0  0
   -1.1451   -0.0899   -5.5234 C   0  0  0  0  0  0  0  0  0  0  0  0
   -1.2364    1.1698   -6.1541 C   0  0  0  0  0  0  0  0  0  0  0  0
   -2.4154    1.9369   -6.1490 C   0  0  0  0  0  0  0  0  0  0  0  0
   -3.5372    1.4323   -5.5157 C   0  0  0  0  0  0  0  0  0  0  0  0
   -3.4728    0.1710   -4.8841 C   0  0  0  0  0  0  0  0  0  0  0  0
   -2.2571   -1.5313   -4.3882 H   0  0  0  0  0  0  0  0  0  0  0  0
   -0.1879   -0.6085   -5.5288 H   0  0  0  0  0  0  0  0  0  0  0  0
   -2.4420    2.9023   -6.6416 H   0  0  0  0  0  0  0  0  0  0  0  0
   -4.4502    2.0134   -5.5121 H   0  0  0  0  0  0  0  0  0  0  0  0
   -0.1455    1.6822   -6.8160 N   0  0  0  0  0  0  0  0  0  0  0  0
    0.7539    2.0259   -7.3939 N   0  0  0  0  0  0  0  0  0  0  0  0
    2.5949   -0.4814   -6.8159 S   0  0  0  0  0  0  0  0  0  0  0  0
    4.0473    0.6375   -6.5242 C   0  0  0  0  0  0  0  0  0  0  0  0
    1.9398    0.1319   -8.0182 O   0  0  0  0  0  0  0  0  0  0  0  0
    1.7834   -0.2868   -5.5806 O   0  0  0  0  0  0  0  0  0  0  0  0
    3.1674   -1.8133   -7.0280 O   0  0  0  0  0  0  0  0  0  0  0  0
    4.8828    0.6181   -7.5698 F   0  0  0  0  0  0  0  0  0  0  0  0
    3.6240    1.9066   -6.3476 F   0  0  0  0  0  0  0  0  0  0  0  0
    4.7240    0.2674   -5.4292 F   0  0  0  0  0  0  0  0  0  0  0  0
   -4.5015   -0.4037   -4.2445 O   0  0  0  0  0  0  0  0  0  0  0  0
   -5.7603    0.2715   -4.1753 C   0  0  0  0  0  0  0  0  0  0  0  0
   -6.4186   -0.3948   -3.6187 H   0  0  0  0  0  0  0  0  0  0  0  0
   -6.1724    0.4413   -5.1758 H   0  0  0  0  0  0  0  0  0  0  0  0
   -5.6679    1.2241   -3.6427 H   0  0  0  0  0  0  0  0  0  0  0  0
  1  6  1  0  0  0  0
  1  7  1  0  0  0  0
  2  1  2  0  0  0  0
  3  4  2  0  0  0  0
  3  2  1  0  0  0  0
  4  5  1  0  0  0  0
  5 10  1  0  0  0  0
  5  6  2  0  0  0  0
  6 21  1  0  0  0  0
  8  2  1  0  0  0  0
  9  4  1  0  0  0  0
 11  3  1  0  0  0  0
 12 11  1  0  0  0  0
 13 14  1  0  0  0  0
 13 16  1  0  0  0  0
 14 19  1  0  0  0  0
 14 20  1  0  0  0  0
 15 13  2  0  0  0  0
 17 13  2  0  0  0  0
 18 14  1  0  0  0  0
 21 22  1  0  0  0  0
 22 25  1  0  0  0  0
 22 23  1  0  0  0  0
 24 22  1  0  0  0  0
M  RAD  3  11   2  12   3  16   2
M  END
