Coordinates from ORCA-job p-CH3O-Ph-N2-X-OTf-B3LYPG-6-31G_dp-scan-d09-49-n400
 OpenBabel08281820593D

 25 24  0  0  0  0  0  0  0  0999 V2000
   -2.2508   -0.5487   -4.8774 C   0  0  0  0  0  0  0  0  0  0  0  0
   -1.1367   -0.0447   -5.5148 C   0  0  0  0  0  0  0  0  0  0  0  0
   -1.2621    1.2024   -6.1642 C   0  0  0  0  0  0  0  0  0  0  0  0
   -2.4630    1.9355   -6.1721 C   0  0  0  0  0  0  0  0  0  0  0  0
   -3.5702    1.4105   -5.5299 C   0  0  0  0  0  0  0  0  0  0  0  0
   -3.4707    0.1614   -4.8786 C   0  0  0  0  0  0  0  0  0  0  0  0
   -2.2092   -1.4996   -4.3590 H   0  0  0  0  0  0  0  0  0  0  0  0
   -0.1632   -0.5331   -5.5093 H   0  0  0  0  0  0  0  0  0  0  0  0
   -2.5168    2.8915   -6.6807 H   0  0  0  0  0  0  0  0  0  0  0  0
   -4.4987    1.9663   -5.5348 H   0  0  0  0  0  0  0  0  0  0  0  0
   -0.1905    1.7378   -6.8404 N   0  0  0  0  0  0  0  0  0  0  0  0
    0.6665    2.1404   -7.4425 N   0  0  0  0  0  0  0  0  0  0  0  0
    2.5450   -0.3564   -6.8137 S   0  0  0  0  0  0  0  0  0  0  0  0
    4.1491    0.5282   -6.5158 C   0  0  0  0  0  0  0  0  0  0  0  0
    2.0017    0.3196   -8.0355 O   0  0  0  0  0  0  0  0  0  0  0  0
    1.7547   -0.0197   -5.5940 O   0  0  0  0  0  0  0  0  0  0  0  0
    2.8997   -1.7678   -6.9842 O   0  0  0  0  0  0  0  0  0  0  0  0
    4.9822    0.3637   -7.5511 F   0  0  0  0  0  0  0  0  0  0  0  0
    3.9279    1.8466   -6.3569 F   0  0  0  0  0  0  0  0  0  0  0  0
    4.7460    0.0652   -5.4095 F   0  0  0  0  0  0  0  0  0  0  0  0
   -4.4826   -0.4304   -4.2280 O   0  0  0  0  0  0  0  0  0  0  0  0
   -5.7585    0.2125   -4.1656 C   0  0  0  0  0  0  0  0  0  0  0  0
   -6.3967   -0.4602   -3.5935 H   0  0  0  0  0  0  0  0  0  0  0  0
   -6.1793    0.3524   -5.1672 H   0  0  0  0  0  0  0  0  0  0  0  0
   -5.6893    1.1771   -3.6512 H   0  0  0  0  0  0  0  0  0  0  0  0
  1  7  1  0  0  0  0
  2  8  1  0  0  0  0
  2  1  2  0  0  0  0
  3  2  1  0  0  0  0
  4  3  2  0  0  0  0
  4  5  1  0  0  0  0
  5  6  2  0  0  0  0
  6  1  1  0  0  0  0
  6 21  1  0  0  0  0
  9  4  1  0  0  0  0
 10  5  1  0  0  0  0
 11  3  1  0  0  0  0
 12 11  1  0  0  0  0
 13 14  1  0  0  0  0
 13 16  1  0  0  0  0
 14 19  1  0  0  0  0
 14 20  1  0  0  0  0
 15 13  2  0  0  0  0
 17 13  2  0  0  0  0
 18 14  1  0  0  0  0
 21 22  1  0  0  0  0
 22 25  1  0  0  0  0
 22 23  1  0  0  0  0
 24 22  1  0  0  0  0
M  RAD  3  11   2  12   3  16   2
M  END
