Coordinates from ORCA-job p-CH3O-Ph-N2-X-OTf-B3LYPG-6-31G_dp-scan-d09-49-n400
 OpenBabel08281820593D

 25 24  0  0  0  0  0  0  0  0999 V2000
   -2.2812   -0.5846   -4.8993 C   0  0  0  0  0  0  0  0  0  0  0  0
   -1.1534   -0.1138   -5.5384 C   0  0  0  0  0  0  0  0  0  0  0  0
   -1.2366    1.1461   -6.1696 C   0  0  0  0  0  0  0  0  0  0  0  0
   -2.4086    1.9240   -6.1580 C   0  0  0  0  0  0  0  0  0  0  0  0
   -3.5308    1.4312   -5.5162 C   0  0  0  0  0  0  0  0  0  0  0  0
   -3.4740    0.1701   -4.8831 C   0  0  0  0  0  0  0  0  0  0  0  0
   -2.2715   -1.5434   -4.3941 H   0  0  0  0  0  0  0  0  0  0  0  0
   -0.2017   -0.6418   -5.5500 H   0  0  0  0  0  0  0  0  0  0  0  0
   -2.4294    2.8891   -6.6516 H   0  0  0  0  0  0  0  0  0  0  0  0
   -4.4381    2.0210   -5.5071 H   0  0  0  0  0  0  0  0  0  0  0  0
   -0.1460    1.6495   -6.8391 N   0  0  0  0  0  0  0  0  0  0  0  0
    0.7468    1.9999   -7.4232 N   0  0  0  0  0  0  0  0  0  0  0  0
    2.6120   -0.4887   -6.8388 S   0  0  0  0  0  0  0  0  0  0  0  0
    4.0294    0.6602   -6.4958 C   0  0  0  0  0  0  0  0  0  0  0  0
    1.9697    0.1285   -8.0456 O   0  0  0  0  0  0  0  0  0  0  0  0
    1.7693   -0.3335   -5.6189 O   0  0  0  0  0  0  0  0  0  0  0  0
    3.2225   -1.8022   -7.0584 O   0  0  0  0  0  0  0  0  0  0  0  0
    4.8867    0.6819   -7.5234 F   0  0  0  0  0  0  0  0  0  0  0  0
    3.5703    1.9153   -6.3049 F   0  0  0  0  0  0  0  0  0  0  0  0
    4.6923    0.2870   -5.3935 F   0  0  0  0  0  0  0  0  0  0  0  0
   -4.5035   -0.3934   -4.2351 O   0  0  0  0  0  0  0  0  0  0  0  0
   -5.7544    0.2953   -4.1557 C   0  0  0  0  0  0  0  0  0  0  0  0
   -6.4151   -0.3635   -3.5929 H   0  0  0  0  0  0  0  0  0  0  0  0
   -6.1733    0.4688   -5.1528 H   0  0  0  0  0  0  0  0  0  0  0  0
   -5.6473    1.2472   -3.6246 H   0  0  0  0  0  0  0  0  0  0  0  0
  1  6  1  0  0  0  0
  1  7  1  0  0  0  0
  2  1  2  0  0  0  0
  3  4  2  0  0  0  0
  3  2  1  0  0  0  0
  4  5  1  0  0  0  0
  5 10  1  0  0  0  0
  5  6  2  0  0  0  0
  6 21  1  0  0  0  0
  8  2  1  0  0  0  0
  9  4  1  0  0  0  0
 11  3  1  0  0  0  0
 12 11  1  0  0  0  0
 13 14  1  0  0  0  0
 13 16  1  0  0  0  0
 14 19  1  0  0  0  0
 14 20  1  0  0  0  0
 15 13  2  0  0  0  0
 17 13  2  0  0  0  0
 18 14  1  0  0  0  0
 21 22  1  0  0  0  0
 22 25  1  0  0  0  0
 22 23  1  0  0  0  0
 24 22  1  0  0  0  0
M  RAD  3  11   2  12   3  16   2
M  END
