Coordinates from ORCA-job p-CH3O-Ph-N2-X-OTf-B3LYPG-6-31G_dp-scan-d09-49-n400
 OpenBabel08281820593D

 25 24  0  0  0  0  0  0  0  0999 V2000
   -2.3450   -0.7967   -5.0467 C   0  0  0  0  0  0  0  0  0  0  0  0
   -1.2547   -0.5203   -5.8454 C   0  0  0  0  0  0  0  0  0  0  0  0
   -1.2056    0.7310   -6.4890 C   0  0  0  0  0  0  0  0  0  0  0  0
   -2.2232    1.6917   -6.3345 C   0  0  0  0  0  0  0  0  0  0  0  0
   -3.3050    1.4033   -5.5211 C   0  0  0  0  0  0  0  0  0  0  0  0
   -3.3747    0.1522   -4.8725 C   0  0  0  0  0  0  0  0  0  0  0  0
   -2.4276   -1.7467   -4.5315 H   0  0  0  0  0  0  0  0  0  0  0  0
   -0.4382   -1.2167   -5.9795 H   0  0  0  0  0  0  0  0  0  0  0  0
   -2.1533    2.6460   -6.8448 H   0  0  0  0  0  0  0  0  0  0  0  0
   -4.0847    2.1434   -5.3950 H   0  0  0  0  0  0  0  0  0  0  0  0
   -0.1631    1.0696   -7.3299 N   0  0  0  0  0  0  0  0  0  0  0  0
    0.5163    1.5570   -8.0811 N   0  0  0  0  0  0  0  0  0  0  0  0
    2.8151   -0.3924   -7.1339 S   0  0  0  0  0  0  0  0  0  0  0  0
    3.4390    0.9092   -5.9645 C   0  0  0  0  0  0  0  0  0  0  0  0
    2.5279    0.3909   -8.3733 O   0  0  0  0  0  0  0  0  0  0  0  0
    1.5596   -0.8365   -6.4593 O   0  0  0  0  0  0  0  0  0  0  0  0
    3.9019   -1.3688   -7.2294 O   0  0  0  0  0  0  0  0  0  0  0  0
    4.5397    1.5017   -6.4385 F   0  0  0  0  0  0  0  0  0  0  0  0
    2.4911    1.8628   -5.7924 F   0  0  0  0  0  0  0  0  0  0  0  0
    3.7173    0.3872   -4.7626 F   0  0  0  0  0  0  0  0  0  0  0  0
   -4.3798   -0.2268   -4.0694 O   0  0  0  0  0  0  0  0  0  0  0  0
   -5.4666    0.6697   -3.8255 C   0  0  0  0  0  0  0  0  0  0  0  0
   -6.1387    0.1380   -3.1524 H   0  0  0  0  0  0  0  0  0  0  0  0
   -5.9951    0.9117   -4.7541 H   0  0  0  0  0  0  0  0  0  0  0  0
   -5.1184    1.5897   -3.3437 H   0  0  0  0  0  0  0  0  0  0  0  0
  1  6  1  0  0  0  0
  1  7  1  0  0  0  0
  2  1  2  0  0  0  0
  3  4  2  0  0  0  0
  3  2  1  0  0  0  0
  4  5  1  0  0  0  0
  5 10  1  0  0  0  0
  5  6  2  0  0  0  0
  6 21  1  0  0  0  0
  8  2  1  0  0  0  0
  9  4  1  0  0  0  0
 11  3  1  0  0  0  0
 12 11  1  0  0  0  0
 13 16  1  0  0  0  0
 13 14  1  0  0  0  0
 14 19  1  0  0  0  0
 14 20  1  0  0  0  0
 15 13  2  0  0  0  0
 17 13  2  0  0  0  0
 18 14  1  0  0  0  0
 21 22  1  0  0  0  0
 22 25  1  0  0  0  0
 22 23  1  0  0  0  0
 24 22  1  0  0  0  0
M  RAD  3  11   2  12   3  16   2
M  END
