Coordinates from ORCA-job p-CH3O-Ph-N2-X-OTf-B3LYPG-6-31G_dp-scan-d09-49-n400
 OpenBabel08281820593D

 25 24  0  0  0  0  0  0  0  0999 V2000
   -1.8758   -0.1620   -4.8286 C   0  0  0  0  0  0  0  0  0  0  0  0
   -0.9171    0.6299   -5.4275 C   0  0  0  0  0  0  0  0  0  0  0  0
   -1.3859    1.7306   -6.1810 C   0  0  0  0  0  0  0  0  0  0  0  0
   -2.7489    2.0465   -6.3326 C   0  0  0  0  0  0  0  0  0  0  0  0
   -3.6850    1.2314   -5.7263 C   0  0  0  0  0  0  0  0  0  0  0  0
   -3.2519    0.1178   -4.9690 C   0  0  0  0  0  0  0  0  0  0  0  0
   -1.5821   -1.0205   -4.2343 H   0  0  0  0  0  0  0  0  0  0  0  0
    0.1736    0.4329   -5.3106 H   0  0  0  0  0  0  0  0  0  0  0  0
   -3.0537    2.9065   -6.9191 H   0  0  0  0  0  0  0  0  0  0  0  0
   -4.7379    1.4569   -5.8385 H   0  0  0  0  0  0  0  0  0  0  0  0
   -0.4604    2.5376   -6.7953 N   0  0  0  0  0  0  0  0  0  0  0  0
    0.4099    3.0634   -7.2660 N   0  0  0  0  0  0  0  0  0  0  0  0
    2.6878    0.8042   -6.1339 S   0  0  0  0  0  0  0  0  0  0  0  0
    3.7134   -0.6159   -6.7514 C   0  0  0  0  0  0  0  0  0  0  0  0
    1.8913    1.1856   -7.3437 O   0  0  0  0  0  0  0  0  0  0  0  0
    3.6505    1.8054   -5.6615 O   0  0  0  0  0  0  0  0  0  0  0  0
    1.8306    0.1783   -5.0816 O   0  0  0  0  0  0  0  0  0  0  0  0
    2.9250   -1.6020   -7.2098 F   0  0  0  0  0  0  0  0  0  0  0  0
    4.5150   -0.2174   -7.7480 F   0  0  0  0  0  0  0  0  0  0  0  0
    4.4728   -1.1072   -5.7627 F   0  0  0  0  0  0  0  0  0  0  0  0
   -4.0805   -0.7281   -4.3422 O   0  0  0  0  0  0  0  0  0  0  0  0
   -5.4943   -0.5293   -4.4216 C   0  0  0  0  0  0  0  0  0  0  0  0
   -5.9360   -1.3381   -3.8408 H   0  0  0  0  0  0  0  0  0  0  0  0
   -5.8435   -0.5902   -5.4578 H   0  0  0  0  0  0  0  0  0  0  0  0
   -5.7826    0.4337   -3.9863 H   0  0  0  0  0  0  0  0  0  0  0  0
  1  7  1  0  0  0  0
  2  8  1  0  0  0  0
  2  1  2  0  0  0  0
  3  2  1  0  0  0  0
  4  3  2  0  0  0  0
  4  5  1  0  0  0  0
  5  6  2  0  0  0  0
  6  1  1  0  0  0  0
  6 21  1  0  0  0  0
  9  4  1  0  0  0  0
 10  5  1  0  0  0  0
 11  3  1  0  0  0  0
 12 11  1  0  0  0  0
 13 16  2  0  0  0  0
 13 17  1  0  0  0  0
 14 13  1  0  0  0  0
 14 20  1  0  0  0  0
 15 13  2  0  0  0  0
 18 14  1  0  0  0  0
 19 14  1  0  0  0  0
 22 21  1  0  0  0  0
 22 25  1  0  0  0  0
 22 23  1  0  0  0  0
 24 22  1  0  0  0  0
M  RAD  3  11   2  12   3  17   2
M  END
