Coordinates from ORCA-job p-CH3O-Ph-N2-X-OTf-B3LYPG-6-31G_dp-scan-d09-49-n400
 OpenBabel08281820593D

 25 24  0  0  0  0  0  0  0  0999 V2000
   -2.2569   -0.5542   -4.8894 C   0  0  0  0  0  0  0  0  0  0  0  0
   -1.1329   -0.0535   -5.5120 C   0  0  0  0  0  0  0  0  0  0  0  0
   -1.2403    1.2058   -6.1414 C   0  0  0  0  0  0  0  0  0  0  0  0
   -2.4310    1.9542   -6.1436 C   0  0  0  0  0  0  0  0  0  0  0  0
   -3.5491    1.4308   -5.5190 C   0  0  0  0  0  0  0  0  0  0  0  0
   -3.4687    0.1697   -4.8885 C   0  0  0  0  0  0  0  0  0  0  0  0
   -2.2296   -1.5136   -4.3860 H   0  0  0  0  0  0  0  0  0  0  0  0
   -0.1663   -0.5555   -5.5090 H   0  0  0  0  0  0  0  0  0  0  0  0
   -2.4694    2.9197   -6.6351 H   0  0  0  0  0  0  0  0  0  0  0  0
   -4.4712    1.9972   -5.5208 H   0  0  0  0  0  0  0  0  0  0  0  0
   -0.1520    1.7348   -6.7944 N   0  0  0  0  0  0  0  0  0  0  0  0
    0.7548    2.0750   -7.3626 N   0  0  0  0  0  0  0  0  0  0  0  0
    2.5631   -0.4550   -6.7796 S   0  0  0  0  0  0  0  0  0  0  0  0
    4.0788    0.5929   -6.5567 C   0  0  0  0  0  0  0  0  0  0  0  0
    1.9065    0.1587   -7.9811 O   0  0  0  0  0  0  0  0  0  0  0  0
    1.7956   -0.1870   -5.5298 O   0  0  0  0  0  0  0  0  0  0  0  0
    3.0558   -1.8218   -6.9687 O   0  0  0  0  0  0  0  0  0  0  0  0
    4.8839    0.5009   -7.6221 F   0  0  0  0  0  0  0  0  0  0  0  0
    3.7270    1.8858   -6.4051 F   0  0  0  0  0  0  0  0  0  0  0  0
    4.7640    0.2155   -5.4694 F   0  0  0  0  0  0  0  0  0  0  0  0
   -4.4925   -0.4220   -4.2565 O   0  0  0  0  0  0  0  0  0  0  0  0
   -5.7624    0.2328   -4.1953 C   0  0  0  0  0  0  0  0  0  0  0  0
   -6.4134   -0.4438   -3.6426 H   0  0  0  0  0  0  0  0  0  0  0  0
   -6.1710    0.3957   -5.1985 H   0  0  0  0  0  0  0  0  0  0  0  0
   -5.6887    1.1870   -3.6626 H   0  0  0  0  0  0  0  0  0  0  0  0
  1  6  1  0  0  0  0
  1  7  1  0  0  0  0
  2  8  1  0  0  0  0
  2  1  2  0  0  0  0
  3  2  1  0  0  0  0
  4  3  2  0  0  0  0
  4  5  1  0  0  0  0
  5  6  2  0  0  0  0
  6 21  1  0  0  0  0
  9  4  1  0  0  0  0
 10  5  1  0  0  0  0
 11  3  1  0  0  0  0
 12 11  1  0  0  0  0
 13 14  1  0  0  0  0
 13 16  1  0  0  0  0
 14 19  1  0  0  0  0
 14 20  1  0  0  0  0
 15 13  2  0  0  0  0
 17 13  2  0  0  0  0
 18 14  1  0  0  0  0
 21 22  1  0  0  0  0
 22 25  1  0  0  0  0
 22 23  1  0  0  0  0
 24 22  1  0  0  0  0
M  RAD  3  11   2  12   3  16   2
M  END
