Coordinates from ORCA-job p-CH3O-Ph-N2-X-OTf-B3LYPG-6-31G_dp-scan-d09-49-n400
 OpenBabel08281820593D

 25 24  0  0  0  0  0  0  0  0999 V2000
   -2.3838   -0.8409   -5.0870 C   0  0  0  0  0  0  0  0  0  0  0  0
   -1.2925   -0.5914   -5.8935 C   0  0  0  0  0  0  0  0  0  0  0  0
   -1.2017    0.6679   -6.5158 C   0  0  0  0  0  0  0  0  0  0  0  0
   -2.1802    1.6628   -6.3301 C   0  0  0  0  0  0  0  0  0  0  0  0
   -3.2620    1.4026   -5.5068 C   0  0  0  0  0  0  0  0  0  0  0  0
   -3.3730    0.1438   -4.8805 C   0  0  0  0  0  0  0  0  0  0  0  0
   -2.4970   -1.7969   -4.5891 H   0  0  0  0  0  0  0  0  0  0  0  0
   -0.5153   -1.3259   -6.0459 H   0  0  0  0  0  0  0  0  0  0  0  0
   -2.0794    2.6229   -6.8240 H   0  0  0  0  0  0  0  0  0  0  0  0
   -4.0094    2.1710   -5.3566 H   0  0  0  0  0  0  0  0  0  0  0  0
   -0.1597    0.9857   -7.3665 N   0  0  0  0  0  0  0  0  0  0  0  0
    0.5025    1.4770   -8.1310 N   0  0  0  0  0  0  0  0  0  0  0  0
    2.8534   -0.3698   -7.1348 S   0  0  0  0  0  0  0  0  0  0  0  0
    3.3606    0.9546   -5.9343 C   0  0  0  0  0  0  0  0  0  0  0  0
    2.5597    0.4084   -8.3773 O   0  0  0  0  0  0  0  0  0  0  0  0
    1.6054   -0.8946   -6.5073 O   0  0  0  0  0  0  0  0  0  0  0  0
    4.0074   -1.2690   -7.2057 O   0  0  0  0  0  0  0  0  0  0  0  0
    4.4382    1.6175   -6.3663 F   0  0  0  0  0  0  0  0  0  0  0  0
    2.3528    1.8502   -5.7828 F   0  0  0  0  0  0  0  0  0  0  0  0
    3.6309    0.4373   -4.7287 F   0  0  0  0  0  0  0  0  0  0  0  0
   -4.3817   -0.2113   -4.0708 O   0  0  0  0  0  0  0  0  0  0  0  0
   -5.4292    0.7224   -3.7960 C   0  0  0  0  0  0  0  0  0  0  0  0
   -6.1138    0.2044   -3.1249 H   0  0  0  0  0  0  0  0  0  0  0  0
   -5.9586    1.0032   -4.7131 H   0  0  0  0  0  0  0  0  0  0  0  0
   -5.0393    1.6183   -3.3012 H   0  0  0  0  0  0  0  0  0  0  0  0
  1  6  1  0  0  0  0
  1  7  1  0  0  0  0
  2  1  2  0  0  0  0
  3  4  2  0  0  0  0
  3  2  1  0  0  0  0
  4  5  1  0  0  0  0
  5 10  1  0  0  0  0
  5  6  2  0  0  0  0
  6 21  1  0  0  0  0
  8  2  1  0  0  0  0
  9  4  1  0  0  0  0
 11  3  1  0  0  0  0
 12 11  1  0  0  0  0
 13 16  1  0  0  0  0
 13 14  1  0  0  0  0
 14 19  1  0  0  0  0
 14 20  1  0  0  0  0
 15 13  2  0  0  0  0
 17 13  2  0  0  0  0
 18 14  1  0  0  0  0
 21 22  1  0  0  0  0
 22 25  1  0  0  0  0
 22 23  1  0  0  0  0
 24 22  1  0  0  0  0
M  RAD  3  11   2  12   3  16   2
M  END
