Coordinates from ORCA-job p-CH3O-Ph-N2-X-OTf-B3LYPG-6-31G_dp-scan-d09-49-n400
 OpenBabel08281820593D

 25 24  0  0  0  0  0  0  0  0999 V2000
   -2.2191   -0.6622   -5.2342 C   0  0  0  0  0  0  0  0  0  0  0  0
   -1.1889   -0.1463   -5.9906 C   0  0  0  0  0  0  0  0  0  0  0  0
   -1.3479    1.1562   -6.5151 C   0  0  0  0  0  0  0  0  0  0  0  0
   -2.5013    1.9258   -6.2807 C   0  0  0  0  0  0  0  0  0  0  0  0
   -3.5188    1.3959   -5.5071 C   0  0  0  0  0  0  0  0  0  0  0  0
   -3.3836    0.0941   -4.9794 C   0  0  0  0  0  0  0  0  0  0  0  0
   -2.1465   -1.6562   -4.8089 H   0  0  0  0  0  0  0  0  0  0  0  0
   -0.2746   -0.7003   -6.1595 H   0  0  0  0  0  0  0  0  0  0  0  0
   -2.5846    2.9223   -6.6996 H   0  0  0  0  0  0  0  0  0  0  0  0
   -4.4050    1.9877   -5.3191 H   0  0  0  0  0  0  0  0  0  0  0  0
   -0.3747    1.7121   -7.3092 N   0  0  0  0  0  0  0  0  0  0  0  0
    0.3942    2.1479   -7.9991 N   0  0  0  0  0  0  0  0  0  0  0  0
    2.3803    0.0430   -6.6770 S   0  0  0  0  0  0  0  0  0  0  0  0
    4.1299    0.3792   -6.1561 C   0  0  0  0  0  0  0  0  0  0  0  0
    2.2705    0.6895   -8.0219 O   0  0  0  0  0  0  0  0  0  0  0  0
    1.5581    0.7374   -5.6477 O   0  0  0  0  0  0  0  0  0  0  0  0
    2.2570   -1.4256   -6.6806 O   0  0  0  0  0  0  0  0  0  0  0  0
    4.9925   -0.1778   -7.0162 F   0  0  0  0  0  0  0  0  0  0  0  0
    4.3616    1.7005   -6.1152 F   0  0  0  0  0  0  0  0  0  0  0  0
    4.3558   -0.1274   -4.9354 F   0  0  0  0  0  0  0  0  0  0  0  0
   -4.3091   -0.5124   -4.2233 O   0  0  0  0  0  0  0  0  0  0  0  0
   -5.5187    0.1759   -3.8949 C   0  0  0  0  0  0  0  0  0  0  0  0
   -6.0901   -0.5169   -3.2776 H   0  0  0  0  0  0  0  0  0  0  0  0
   -6.0913    0.4198   -4.7964 H   0  0  0  0  0  0  0  0  0  0  0  0
   -5.3111    1.0881   -3.3252 H   0  0  0  0  0  0  0  0  0  0  0  0
  1  6  1  0  0  0  0
  1  7  1  0  0  0  0
  2  1  2  0  0  0  0
  3  4  2  0  0  0  0
  3  2  1  0  0  0  0
  4  5  1  0  0  0  0
  5 10  1  0  0  0  0
  5  6  2  0  0  0  0
  6 21  1  0  0  0  0
  8  2  1  0  0  0  0
  9  4  1  0  0  0  0
 11  3  1  0  0  0  0
 12 11  1  0  0  0  0
 13 14  1  0  0  0  0
 13 16  1  0  0  0  0
 14 19  1  0  0  0  0
 14 20  1  0  0  0  0
 15 13  2  0  0  0  0
 17 13  2  0  0  0  0
 18 14  1  0  0  0  0
 21 22  1  0  0  0  0
 22 25  1  0  0  0  0
 22 23  1  0  0  0  0
 24 22  1  0  0  0  0
M  RAD  3  11   2  12   3  16   2
M  END
