Coordinates from ORCA-job p-CH3O-Ph-N2-X-OTf-B3LYPG-6-31G_dp-scan-d09-49-n400
 OpenBabel08281820593D

 25 24  0  0  0  0  0  0  0  0999 V2000
   -1.9491   -0.2384   -4.8686 C   0  0  0  0  0  0  0  0  0  0  0  0
   -0.9710    0.5132   -5.4867 C   0  0  0  0  0  0  0  0  0  0  0  0
   -1.4010    1.6438   -6.2185 C   0  0  0  0  0  0  0  0  0  0  0  0
   -2.7502    2.0253   -6.3274 C   0  0  0  0  0  0  0  0  0  0  0  0
   -3.7100    1.2504   -5.7038 C   0  0  0  0  0  0  0  0  0  0  0  0
   -3.3133    0.1096   -4.9692 C   0  0  0  0  0  0  0  0  0  0  0  0
   -1.6810   -1.1146   -4.2886 H   0  0  0  0  0  0  0  0  0  0  0  0
    0.1011    0.2655   -5.3937 H   0  0  0  0  0  0  0  0  0  0  0  0
   -3.0279    2.9059   -6.8963 H   0  0  0  0  0  0  0  0  0  0  0  0
   -4.7528    1.5293   -5.7846 H   0  0  0  0  0  0  0  0  0  0  0  0
   -0.4551    2.4146   -6.8511 N   0  0  0  0  0  0  0  0  0  0  0  0
    0.4489    2.8744   -7.3321 N   0  0  0  0  0  0  0  0  0  0  0  0
    2.6499    0.7395   -6.1465 S   0  0  0  0  0  0  0  0  0  0  0  0
    3.9173   -0.4852   -6.7332 C   0  0  0  0  0  0  0  0  0  0  0  0
    1.8519    1.0070   -7.3906 O   0  0  0  0  0  0  0  0  0  0  0  0
    3.4162    1.8851   -5.6390 O   0  0  0  0  0  0  0  0  0  0  0  0
    1.8616   -0.0208   -5.1357 O   0  0  0  0  0  0  0  0  0  0  0  0
    3.3215   -1.5778   -7.2351 F   0  0  0  0  0  0  0  0  0  0  0  0
    4.6830    0.0574   -7.6891 F   0  0  0  0  0  0  0  0  0  0  0  0
    4.7045   -0.8605   -5.7159 F   0  0  0  0  0  0  0  0  0  0  0  0
   -4.1647   -0.7014   -4.3267 O   0  0  0  0  0  0  0  0  0  0  0  0
   -5.5681   -0.4302   -4.3625 C   0  0  0  0  0  0  0  0  0  0  0  0
   -6.0336   -1.2202   -3.7744 H   0  0  0  0  0  0  0  0  0  0  0  0
   -5.9505   -0.4645   -5.3883 H   0  0  0  0  0  0  0  0  0  0  0  0
   -5.7937    0.5426   -3.9123 H   0  0  0  0  0  0  0  0  0  0  0  0
  1  7  1  0  0  0  0
  2  8  1  0  0  0  0
  2  1  2  0  0  0  0
  3  2  1  0  0  0  0
  4  3  2  0  0  0  0
  4  5  1  0  0  0  0
  5  6  2  0  0  0  0
  6  1  1  0  0  0  0
  6 21  1  0  0  0  0
  9  4  1  0  0  0  0
 10  5  1  0  0  0  0
 11  3  1  0  0  0  0
 12 11  1  0  0  0  0
 13 16  2  0  0  0  0
 13 17  1  0  0  0  0
 14 13  1  0  0  0  0
 14 20  1  0  0  0  0
 15 13  2  0  0  0  0
 18 14  1  0  0  0  0
 19 14  1  0  0  0  0
 22 21  1  0  0  0  0
 22 25  1  0  0  0  0
 22 23  1  0  0  0  0
 24 22  1  0  0  0  0
M  RAD  3  11   2  12   3  17   2
M  END
