Coordinates from ORCA-job p-CH3O-Ph-N2-X-OTf-B3LYPG-6-31G_dp-scan-d09-49-n400
 OpenBabel08281820593D

 25 24  0  0  0  0  0  0  0  0999 V2000
   -2.2441   -0.5415   -4.8869 C   0  0  0  0  0  0  0  0  0  0  0  0
   -1.1228   -0.0269   -5.5029 C   0  0  0  0  0  0  0  0  0  0  0  0
   -1.2423    1.2315   -6.1321 C   0  0  0  0  0  0  0  0  0  0  0  0
   -2.4417    1.9656   -6.1404 C   0  0  0  0  0  0  0  0  0  0  0  0
   -3.5568    1.4282   -5.5224 C   0  0  0  0  0  0  0  0  0  0  0  0
   -3.4646    0.1679   -4.8921 C   0  0  0  0  0  0  0  0  0  0  0  0
   -2.2080   -1.5006   -4.3837 H   0  0  0  0  0  0  0  0  0  0  0  0
   -0.1492   -0.5157   -5.4925 H   0  0  0  0  0  0  0  0  0  0  0  0
   -2.4891    2.9308   -6.6317 H   0  0  0  0  0  0  0  0  0  0  0  0
   -4.4858    1.9833   -5.5290 H   0  0  0  0  0  0  0  0  0  0  0  0
   -0.1563    1.7733   -6.7786 N   0  0  0  0  0  0  0  0  0  0  0  0
    0.7512    2.1146   -7.3446 N   0  0  0  0  0  0  0  0  0  0  0  0
    2.5379   -0.4296   -6.7542 S   0  0  0  0  0  0  0  0  0  0  0  0
    4.1001    0.5567   -6.5786 C   0  0  0  0  0  0  0  0  0  0  0  0
    1.8859    0.1856   -7.9574 O   0  0  0  0  0  0  0  0  0  0  0  0
    1.8035   -0.1050   -5.4979 O   0  0  0  0  0  0  0  0  0  0  0  0
    2.9653   -1.8212   -6.9213 O   0  0  0  0  0  0  0  0  0  0  0  0
    4.8816    0.4086   -7.6552 F   0  0  0  0  0  0  0  0  0  0  0  0
    3.8058    1.8653   -6.4478 F   0  0  0  0  0  0  0  0  0  0  0  0
    4.7874    0.1711   -5.4954 F   0  0  0  0  0  0  0  0  0  0  0  0
   -4.4843   -0.4362   -4.2653 O   0  0  0  0  0  0  0  0  0  0  0  0
   -5.7620    0.2038   -4.2095 C   0  0  0  0  0  0  0  0  0  0  0  0
   -6.4072   -0.4798   -3.6587 H   0  0  0  0  0  0  0  0  0  0  0  0
   -6.1686    0.3611   -5.2144 H   0  0  0  0  0  0  0  0  0  0  0  0
   -5.7015    1.1592   -3.6773 H   0  0  0  0  0  0  0  0  0  0  0  0
  1  7  1  0  0  0  0
  2  8  1  0  0  0  0
  2  1  2  0  0  0  0
  3  2  1  0  0  0  0
  4  3  2  0  0  0  0
  4  5  1  0  0  0  0
  5  6  2  0  0  0  0
  6  1  1  0  0  0  0
  6 21  1  0  0  0  0
  9  4  1  0  0  0  0
 10  5  1  0  0  0  0
 11  3  1  0  0  0  0
 12 11  1  0  0  0  0
 13 14  1  0  0  0  0
 13 16  1  0  0  0  0
 14 19  1  0  0  0  0
 14 20  1  0  0  0  0
 15 13  2  0  0  0  0
 17 13  2  0  0  0  0
 18 14  1  0  0  0  0
 21 22  1  0  0  0  0
 22 25  1  0  0  0  0
 22 23  1  0  0  0  0
 24 22  1  0  0  0  0
M  RAD  3  11   2  12   3  16   2
M  END
