Coordinates from ORCA-job p-CH3O-Ph-N2-X-OTf-B3LYPG-6-31G_dp-scan-d09-49-n400
 OpenBabel08281820593D

 25 24  0  0  0  0  0  0  0  0999 V2000
   -2.2106   -0.4960   -4.8435 C   0  0  0  0  0  0  0  0  0  0  0  0
   -1.1117    0.0388   -5.4821 C   0  0  0  0  0  0  0  0  0  0  0  0
   -1.2819    1.2648   -6.1612 C   0  0  0  0  0  0  0  0  0  0  0  0
   -2.5118    1.9473   -6.1967 C   0  0  0  0  0  0  0  0  0  0  0  0
   -3.6026    1.3920   -5.5523 C   0  0  0  0  0  0  0  0  0  0  0  0
   -3.4585    0.1631   -4.8716 C   0  0  0  0  0  0  0  0  0  0  0  0
   -2.1350   -1.4329   -4.3039 H   0  0  0  0  0  0  0  0  0  0  0  0
   -0.1196   -0.4097   -5.4556 H   0  0  0  0  0  0  0  0  0  0  0  0
   -2.5999    2.8885   -6.7277 H   0  0  0  0  0  0  0  0  0  0  0  0
   -4.5530    1.9091   -5.5779 H   0  0  0  0  0  0  0  0  0  0  0  0
   -0.2280    1.8287   -6.8426 N   0  0  0  0  0  0  0  0  0  0  0  0
    0.6138    2.2549   -7.4490 N   0  0  0  0  0  0  0  0  0  0  0  0
    2.4968   -0.2530   -6.7877 S   0  0  0  0  0  0  0  0  0  0  0  0
    4.2146    0.4009   -6.5312 C   0  0  0  0  0  0  0  0  0  0  0  0
    2.0250    0.4696   -8.0119 O   0  0  0  0  0  0  0  0  0  0  0  0
    1.7788    0.2023   -5.5610 O   0  0  0  0  0  0  0  0  0  0  0  0
    2.6491   -1.7041   -6.9367 O   0  0  0  0  0  0  0  0  0  0  0  0
    4.9939    0.1046   -7.5796 F   0  0  0  0  0  0  0  0  0  0  0  0
    4.1890    1.7374   -6.3870 F   0  0  0  0  0  0  0  0  0  0  0  0
    4.7606   -0.1317   -5.4295 F   0  0  0  0  0  0  0  0  0  0  0  0
   -4.4513   -0.4548   -4.2163 O   0  0  0  0  0  0  0  0  0  0  0  0
   -5.7538    0.1348   -4.1823 C   0  0  0  0  0  0  0  0  0  0  0  0
   -6.3689   -0.5494   -3.5989 H   0  0  0  0  0  0  0  0  0  0  0  0
   -6.1698    0.2308   -5.1912 H   0  0  0  0  0  0  0  0  0  0  0  0
   -5.7306    1.1143   -3.6925 H   0  0  0  0  0  0  0  0  0  0  0  0
  1  7  1  0  0  0  0
  2  8  1  0  0  0  0
  2  1  2  0  0  0  0
  3  2  1  0  0  0  0
  4  3  2  0  0  0  0
  4  5  1  0  0  0  0
  5  6  2  0  0  0  0
  6  1  1  0  0  0  0
  6 21  1  0  0  0  0
  9  4  1  0  0  0  0
 10  5  1  0  0  0  0
 11  3  1  0  0  0  0
 12 11  1  0  0  0  0
 13 14  1  0  0  0  0
 13 16  1  0  0  0  0
 14 19  1  0  0  0  0
 14 20  1  0  0  0  0
 15 13  2  0  0  0  0
 17 13  2  0  0  0  0
 18 14  1  0  0  0  0
 21 22  1  0  0  0  0
 22 25  1  0  0  0  0
 22 23  1  0  0  0  0
 24 22  1  0  0  0  0
M  RAD  3  11   2  12   3  16   2
M  END
