Coordinates from ORCA-job p-CH3O-Ph-N2-X-OTf-B3LYPG-6-31G_dp-scan-d09-49-n400
 OpenBabel08281820593D

 25 24  0  0  0  0  0  0  0  0999 V2000
   -1.7263   -0.0473   -4.7949 C   0  0  0  0  0  0  0  0  0  0  0  0
   -0.7941    0.8044   -5.3599 C   0  0  0  0  0  0  0  0  0  0  0  0
   -1.3286    1.8626   -6.1324 C   0  0  0  0  0  0  0  0  0  0  0  0
   -2.7068    2.0833   -6.3430 C   0  0  0  0  0  0  0  0  0  0  0  0
   -3.6012    1.2079   -5.7640 C   0  0  0  0  0  0  0  0  0  0  0  0
   -3.1123    0.1320   -4.9821 C   0  0  0  0  0  0  0  0  0  0  0  0
   -1.3993   -0.8869   -4.1896 H   0  0  0  0  0  0  0  0  0  0  0  0
    0.3668    0.6526   -5.2154 H   0  0  0  0  0  0  0  0  0  0  0  0
   -3.0506    2.9158   -6.9482 H   0  0  0  0  0  0  0  0  0  0  0  0
   -4.6631    1.3539   -5.9162 H   0  0  0  0  0  0  0  0  0  0  0  0
   -0.4562    2.7449   -6.7147 N   0  0  0  0  0  0  0  0  0  0  0  0
    0.2926    3.4327   -7.1772 N   0  0  0  0  0  0  0  0  0  0  0  0
    2.6664    0.8400   -6.1281 S   0  0  0  0  0  0  0  0  0  0  0  0
    3.3134   -0.7899   -6.7378 C   0  0  0  0  0  0  0  0  0  0  0  0
    1.9074    1.3786   -7.2863 O   0  0  0  0  0  0  0  0  0  0  0  0
    3.8461    1.5911   -5.6946 O   0  0  0  0  0  0  0  0  0  0  0  0
    1.7346    0.4223   -5.0160 O   0  0  0  0  0  0  0  0  0  0  0  0
    2.2991   -1.5746   -7.1406 F   0  0  0  0  0  0  0  0  0  0  0  0
    4.1415   -0.6042   -7.7740 F   0  0  0  0  0  0  0  0  0  0  0  0
    3.9791   -1.4262   -5.7656 F   0  0  0  0  0  0  0  0  0  0  0  0
   -3.9021   -0.7675   -4.3794 O   0  0  0  0  0  0  0  0  0  0  0  0
   -5.3223   -0.6723   -4.5124 C   0  0  0  0  0  0  0  0  0  0  0  0
   -5.7259   -1.5081   -3.9420 H   0  0  0  0  0  0  0  0  0  0  0  0
   -5.6280   -0.7639   -5.5600 H   0  0  0  0  0  0  0  0  0  0  0  0
   -5.6963    0.2691   -4.0954 H   0  0  0  0  0  0  0  0  0  0  0  0
  1  7  1  0  0  0  0
  2  8  1  0  0  0  0
  2  1  2  0  0  0  0
  3  2  1  0  0  0  0
  4  3  2  0  0  0  0
  4  5  1  0  0  0  0
  5  6  2  0  0  0  0
  6  1  1  0  0  0  0
  6 21  1  0  0  0  0
  9  4  1  0  0  0  0
 10  5  1  0  0  0  0
 11  3  1  0  0  0  0
 12 11  1  0  0  0  0
 13 16  2  0  0  0  0
 13 17  1  0  0  0  0
 14 13  1  0  0  0  0
 14 20  1  0  0  0  0
 15 13  2  0  0  0  0
 18 14  1  0  0  0  0
 19 14  1  0  0  0  0
 22 21  1  0  0  0  0
 22 25  1  0  0  0  0
 22 23  1  0  0  0  0
 24 22  1  0  0  0  0
M  RAD  3  11   2  12   3  17   2
M  END
