Coordinates from ORCA-job p-CH3O-Ph-N2-X-OTf-B3LYPG-6-31G_dp-scan-d09-49-n400
 OpenBabel08281820593D

 25 24  0  0  0  0  0  0  0  0999 V2000
   -2.3040   -0.6217   -4.9222 C   0  0  0  0  0  0  0  0  0  0  0  0
   -1.1773   -0.1819   -5.5851 C   0  0  0  0  0  0  0  0  0  0  0  0
   -1.2376    1.0793   -6.2154 C   0  0  0  0  0  0  0  0  0  0  0  0
   -2.3888    1.8880   -6.1816 C   0  0  0  0  0  0  0  0  0  0  0  0
   -3.5100    1.4274   -5.5147 C   0  0  0  0  0  0  0  0  0  0  0  0
   -3.4746    0.1661   -4.8807 C   0  0  0  0  0  0  0  0  0  0  0  0
   -2.3101   -1.5802   -4.4166 H   0  0  0  0  0  0  0  0  0  0  0  0
   -0.2422   -0.7363   -5.6176 H   0  0  0  0  0  0  0  0  0  0  0  0
   -2.3938    2.8526   -6.6765 H   0  0  0  0  0  0  0  0  0  0  0  0
   -4.4002    2.0421   -5.4875 H   0  0  0  0  0  0  0  0  0  0  0  0
   -0.1503    1.5575   -6.9088 N   0  0  0  0  0  0  0  0  0  0  0  0
    0.7183    1.9327   -7.5139 N   0  0  0  0  0  0  0  0  0  0  0  0
    2.6546   -0.4935   -6.8966 S   0  0  0  0  0  0  0  0  0  0  0  0
    3.9787    0.7156   -6.4159 C   0  0  0  0  0  0  0  0  0  0  0  0
    2.0604    0.1354   -8.1206 O   0  0  0  0  0  0  0  0  0  0  0  0
    1.7275   -0.4289   -5.7306 O   0  0  0  0  0  0  0  0  0  0  0  0
    3.3521   -1.7623   -7.1181 O   0  0  0  0  0  0  0  0  0  0  0  0
    4.8967    0.8322   -7.3829 F   0  0  0  0  0  0  0  0  0  0  0  0
    3.4351    1.9343   -6.2046 F   0  0  0  0  0  0  0  0  0  0  0  0
    4.5914    0.3327   -5.2884 F   0  0  0  0  0  0  0  0  0  0  0  0
   -4.5050   -0.3676   -4.2094 O   0  0  0  0  0  0  0  0  0  0  0  0
   -5.7327    0.3578   -4.1005 C   0  0  0  0  0  0  0  0  0  0  0  0
   -6.3991   -0.2812   -3.5219 H   0  0  0  0  0  0  0  0  0  0  0  0
   -6.1699    0.5441   -5.0874 H   0  0  0  0  0  0  0  0  0  0  0  0
   -5.5847    1.3060   -3.5725 H   0  0  0  0  0  0  0  0  0  0  0  0
  1  6  1  0  0  0  0
  1  7  1  0  0  0  0
  2  1  2  0  0  0  0
  3  4  2  0  0  0  0
  3  2  1  0  0  0  0
  4  5  1  0  0  0  0
  5 10  1  0  0  0  0
  5  6  2  0  0  0  0
  6 21  1  0  0  0  0
  8  2  1  0  0  0  0
  9  4  1  0  0  0  0
 11  3  1  0  0  0  0
 12 11  1  0  0  0  0
 13 14  1  0  0  0  0
 13 16  1  0  0  0  0
 14 19  1  0  0  0  0
 14 20  1  0  0  0  0
 15 13  2  0  0  0  0
 17 13  2  0  0  0  0
 18 14  1  0  0  0  0
 21 22  1  0  0  0  0
 22 25  1  0  0  0  0
 22 23  1  0  0  0  0
 24 22  1  0  0  0  0
M  RAD  3  11   2  12   3  16   2
M  END
