Coordinates from ORCA-job p-CH3O-Ph-N2-X-OTf-B3LYPG-6-31G_dp-scan-d09-49-n400
 OpenBabel08281820593D

 25 24  0  0  0  0  0  0  0  0999 V2000
   -2.1862   -0.4807   -4.8546 C   0  0  0  0  0  0  0  0  0  0  0  0
   -1.0983    0.0718   -5.4965 C   0  0  0  0  0  0  0  0  0  0  0  0
   -1.2904    1.2950   -6.1753 C   0  0  0  0  0  0  0  0  0  0  0  0
   -2.5314    1.9574   -6.2061 C   0  0  0  0  0  0  0  0  0  0  0  0
   -3.6108    1.3851   -5.5573 C   0  0  0  0  0  0  0  0  0  0  0  0
   -3.4446    0.1584   -4.8779 C   0  0  0  0  0  0  0  0  0  0  0  0
   -2.0936   -1.4166   -4.3160 H   0  0  0  0  0  0  0  0  0  0  0  0
   -0.1006   -0.3621   -5.4695 H   0  0  0  0  0  0  0  0  0  0  0  0
   -2.6366    2.8969   -6.7369 H   0  0  0  0  0  0  0  0  0  0  0  0
   -4.5692    1.8873   -5.5788 H   0  0  0  0  0  0  0  0  0  0  0  0
   -0.2501    1.8750   -6.8639 N   0  0  0  0  0  0  0  0  0  0  0  0
    0.5811    2.3118   -7.4766 N   0  0  0  0  0  0  0  0  0  0  0  0
    2.4624   -0.1796   -6.7551 S   0  0  0  0  0  0  0  0  0  0  0  0
    4.2321    0.3306   -6.5268 C   0  0  0  0  0  0  0  0  0  0  0  0
    2.0422    0.5427   -7.9980 O   0  0  0  0  0  0  0  0  0  0  0  0
    1.7908    0.3652   -5.5393 O   0  0  0  0  0  0  0  0  0  0  0  0
    2.4882   -1.6433   -6.8601 O   0  0  0  0  0  0  0  0  0  0  0  0
    4.9749   -0.0662   -7.5687 F   0  0  0  0  0  0  0  0  0  0  0  0
    4.3245    1.6672   -6.4244 F   0  0  0  0  0  0  0  0  0  0  0  0
    4.7364   -0.2142   -5.4112 F   0  0  0  0  0  0  0  0  0  0  0  0
   -4.4250   -0.4757   -4.2196 O   0  0  0  0  0  0  0  0  0  0  0  0
   -5.7369    0.0924   -4.1812 C   0  0  0  0  0  0  0  0  0  0  0  0
   -6.3387   -0.6017   -3.5957 H   0  0  0  0  0  0  0  0  0  0  0  0
   -6.1577    0.1814   -5.1888 H   0  0  0  0  0  0  0  0  0  0  0  0
   -5.7281    1.0722   -3.6917 H   0  0  0  0  0  0  0  0  0  0  0  0
  1  7  1  0  0  0  0
  2  8  1  0  0  0  0
  2  1  2  0  0  0  0
  3  2  1  0  0  0  0
  4  3  2  0  0  0  0
  4  5  1  0  0  0  0
  5  6  2  0  0  0  0
  6  1  1  0  0  0  0
  6 21  1  0  0  0  0
  9  4  1  0  0  0  0
 10  5  1  0  0  0  0
 11  3  1  0  0  0  0
 12 11  1  0  0  0  0
 13 14  1  0  0  0  0
 13 16  1  0  0  0  0
 14 19  1  0  0  0  0
 14 20  1  0  0  0  0
 15 13  2  0  0  0  0
 17 13  2  0  0  0  0
 18 14  1  0  0  0  0
 21 22  1  0  0  0  0
 22 25  1  0  0  0  0
 22 23  1  0  0  0  0
 24 22  1  0  0  0  0
M  RAD  3  11   2  12   3  16   2
M  END
