Coordinates from ORCA-job p-CH3O-Ph-N2-X-OTf-B3LYPG-6-31G_dp-scan-d09-49-n400
 OpenBabel08281820593D

 25 24  0  0  0  0  0  0  0  0999 V2000
   -1.8148   -0.1086   -4.8062 C   0  0  0  0  0  0  0  0  0  0  0  0
   -0.8702    0.7111   -5.3914 C   0  0  0  0  0  0  0  0  0  0  0  0
   -1.3661    1.7906   -6.1585 C   0  0  0  0  0  0  0  0  0  0  0  0
   -2.7366    2.0610   -6.3386 C   0  0  0  0  0  0  0  0  0  0  0  0
   -3.6545    1.2185   -5.7438 C   0  0  0  0  0  0  0  0  0  0  0  0
   -3.1966    0.1238   -4.9720 C   0  0  0  0  0  0  0  0  0  0  0  0
   -1.5042   -0.9555   -4.2037 H   0  0  0  0  0  0  0  0  0  0  0  0
    0.2367    0.5449   -5.2593 H   0  0  0  0  0  0  0  0  0  0  0  0
   -3.0595    2.9066   -6.9365 H   0  0  0  0  0  0  0  0  0  0  0  0
   -4.7124    1.4067   -5.8765 H   0  0  0  0  0  0  0  0  0  0  0  0
   -0.4588    2.6255   -6.7600 N   0  0  0  0  0  0  0  0  0  0  0  0
    0.3765    3.2066   -7.2252 N   0  0  0  0  0  0  0  0  0  0  0  0
    2.6943    0.8328   -6.1279 S   0  0  0  0  0  0  0  0  0  0  0  0
    3.5436   -0.6966   -6.7514 C   0  0  0  0  0  0  0  0  0  0  0  0
    1.9052    1.2856   -7.3129 O   0  0  0  0  0  0  0  0  0  0  0  0
    3.7715    1.7244   -5.6869 O   0  0  0  0  0  0  0  0  0  0  0  0
    1.8056    0.3059   -5.0422 O   0  0  0  0  0  0  0  0  0  0  0  0
    2.6404   -1.5923   -7.1851 F   0  0  0  0  0  0  0  0  0  0  0  0
    4.3629   -0.3972   -7.7683 F   0  0  0  0  0  0  0  0  0  0  0  0
    4.2642   -1.2638   -5.7747 F   0  0  0  0  0  0  0  0  0  0  0  0
   -4.0078   -0.7462   -4.3560 O   0  0  0  0  0  0  0  0  0  0  0  0
   -5.4259   -0.5972   -4.4630 C   0  0  0  0  0  0  0  0  0  0  0  0
   -5.8502   -1.4186   -3.8869 H   0  0  0  0  0  0  0  0  0  0  0  0
   -5.7531   -0.6746   -5.5053 H   0  0  0  0  0  0  0  0  0  0  0  0
   -5.7559    0.3568   -4.0377 H   0  0  0  0  0  0  0  0  0  0  0  0
  1  7  1  0  0  0  0
  2  8  1  0  0  0  0
  2  1  2  0  0  0  0
  3  2  1  0  0  0  0
  4  3  2  0  0  0  0
  4  5  1  0  0  0  0
  5  6  2  0  0  0  0
  6  1  1  0  0  0  0
  6 21  1  0  0  0  0
  9  4  1  0  0  0  0
 10  5  1  0  0  0  0
 11  3  1  0  0  0  0
 12 11  1  0  0  0  0
 13 16  2  0  0  0  0
 13 17  1  0  0  0  0
 14 13  1  0  0  0  0
 14 20  1  0  0  0  0
 15 13  2  0  0  0  0
 18 14  1  0  0  0  0
 19 14  1  0  0  0  0
 22 21  1  0  0  0  0
 22 25  1  0  0  0  0
 22 23  1  0  0  0  0
 24 22  1  0  0  0  0
M  RAD  3  11   2  12   3  17   2
M  END
