Coordinates from ORCA-job p-CH3O-Ph-N2-X-OTf-B3LYPG-6-31G_dp-scan-d09-49-n400
 OpenBabel08281820593D

 25 24  0  0  0  0  0  0  0  0999 V2000
   -2.2392   -0.5329   -4.8668 C   0  0  0  0  0  0  0  0  0  0  0  0
   -1.1312   -0.0208   -5.5085 C   0  0  0  0  0  0  0  0  0  0  0  0
   -1.2725    1.2180   -6.1704 C   0  0  0  0  0  0  0  0  0  0  0  0
   -2.4832    1.9349   -6.1868 C   0  0  0  0  0  0  0  0  0  0  0  0
   -3.5837    1.4022   -5.5397 C   0  0  0  0  0  0  0  0  0  0  0  0
   -3.4682    0.1613   -4.8754 C   0  0  0  0  0  0  0  0  0  0  0  0
   -2.1854   -1.4780   -4.3390 H   0  0  0  0  0  0  0  0  0  0  0  0
   -0.1513   -0.4960   -5.4971 H   0  0  0  0  0  0  0  0  0  0  0  0
   -2.5493    2.8848   -6.7053 H   0  0  0  0  0  0  0  0  0  0  0  0
   -4.5194    1.9457   -5.5506 H   0  0  0  0  0  0  0  0  0  0  0  0
   -0.2084    1.7617   -6.8522 N   0  0  0  0  0  0  0  0  0  0  0  0
    0.6389    2.1775   -7.4588 N   0  0  0  0  0  0  0  0  0  0  0  0
    2.5319   -0.3168   -6.8137 S   0  0  0  0  0  0  0  0  0  0  0  0
    4.1777    0.4855   -6.5097 C   0  0  0  0  0  0  0  0  0  0  0  0
    2.0240    0.3854   -8.0355 O   0  0  0  0  0  0  0  0  0  0  0  0
    1.7547    0.0545   -5.5951 O   0  0  0  0  0  0  0  0  0  0  0  0
    2.8166   -1.7445   -6.9842 O   0  0  0  0  0  0  0  0  0  0  0  0
    5.0011    0.2864   -7.5468 F   0  0  0  0  0  0  0  0  0  0  0  0
    4.0235    1.8113   -6.3405 F   0  0  0  0  0  0  0  0  0  0  0  0
    4.7504   -0.0162   -5.4073 F   0  0  0  0  0  0  0  0  0  0  0  0
   -4.4723   -0.4366   -4.2184 O   0  0  0  0  0  0  0  0  0  0  0  0
   -5.7563    0.1908   -4.1623 C   0  0  0  0  0  0  0  0  0  0  0  0
   -6.3853   -0.4831   -3.5815 H   0  0  0  0  0  0  0  0  0  0  0  0
   -6.1798    0.3131   -5.1651 H   0  0  0  0  0  0  0  0  0  0  0  0
   -5.6989    1.1622   -3.6596 H   0  0  0  0  0  0  0  0  0  0  0  0
  1  7  1  0  0  0  0
  2  8  1  0  0  0  0
  2  1  2  0  0  0  0
  3  2  1  0  0  0  0
  4  3  2  0  0  0  0
  4  5  1  0  0  0  0
  5  6  2  0  0  0  0
  6  1  1  0  0  0  0
  6 21  1  0  0  0  0
  9  4  1  0  0  0  0
 10  5  1  0  0  0  0
 11  3  1  0  0  0  0
 12 11  1  0  0  0  0
 13 14  1  0  0  0  0
 13 16  1  0  0  0  0
 14 19  1  0  0  0  0
 14 20  1  0  0  0  0
 15 13  2  0  0  0  0
 17 13  2  0  0  0  0
 18 14  1  0  0  0  0
 21 22  1  0  0  0  0
 22 25  1  0  0  0  0
 22 23  1  0  0  0  0
 24 22  1  0  0  0  0
M  RAD  3  11   2  12   3  16   2
M  END
