Coordinates from ORCA-job p-CH3O-Ph-N2-X-OTf-B3LYPG-6-31G_dp-scan-d09-49-n400
 OpenBabel08281820593D

 25 24  0  0  0  0  0  0  0  0999 V2000
   -2.1049   -0.4853   -5.1091 C   0  0  0  0  0  0  0  0  0  0  0  0
   -1.0887    0.1606   -5.7816 C   0  0  0  0  0  0  0  0  0  0  0  0
   -1.3885    1.4144   -6.3626 C   0  0  0  0  0  0  0  0  0  0  0  0
   -2.6580    2.0093   -6.2710 C   0  0  0  0  0  0  0  0  0  0  0  0
   -3.6639    1.3412   -5.5961 C   0  0  0  0  0  0  0  0  0  0  0  0
   -3.3918    0.0859   -5.0098 C   0  0  0  0  0  0  0  0  0  0  0  0
   -1.9268   -1.4449   -4.6379 H   0  0  0  0  0  0  0  0  0  0  0  0
   -0.0859   -0.2655   -5.8340 H   0  0  0  0  0  0  0  0  0  0  0  0
   -2.8407    2.9763   -6.7259 H   0  0  0  0  0  0  0  0  0  0  0  0
   -4.6450    1.7923   -5.5224 H   0  0  0  0  0  0  0  0  0  0  0  0
   -0.4034    2.0941   -7.0417 N   0  0  0  0  0  0  0  0  0  0  0  0
    0.5370    2.4314   -7.5590 N   0  0  0  0  0  0  0  0  0  0  0  0
    2.4628    0.4493   -6.2009 S   0  0  0  0  0  0  0  0  0  0  0  0
    4.2061   -0.0652   -6.5805 C   0  0  0  0  0  0  0  0  0  0  0  0
    1.8240    0.5373   -7.5618 O   0  0  0  0  0  0  0  0  0  0  0  0
    2.5708    1.7542   -5.5214 O   0  0  0  0  0  0  0  0  0  0  0  0
    1.9106   -0.6658   -5.3954 O   0  0  0  0  0  0  0  0  0  0  0  0
    4.2179   -1.2315   -7.2393 F   0  0  0  0  0  0  0  0  0  0  0  0
    4.8098    0.8596   -7.3393 F   0  0  0  0  0  0  0  0  0  0  0  0
    4.9021   -0.2075   -5.4447 F   0  0  0  0  0  0  0  0  0  0  0  0
   -4.2929   -0.6391   -4.3319 O   0  0  0  0  0  0  0  0  0  0  0  0
   -5.6233   -0.1421   -4.1664 C   0  0  0  0  0  0  0  0  0  0  0  0
   -6.1468   -0.8981   -3.5819 H   0  0  0  0  0  0  0  0  0  0  0  0
   -6.1216   -0.0187   -5.1341 H   0  0  0  0  0  0  0  0  0  0  0  0
   -5.6247    0.8080   -3.6212 H   0  0  0  0  0  0  0  0  0  0  0  0
  1  6  1  0  0  0  0
  1  7  1  0  0  0  0
  2  1  2  0  0  0  0
  3  4  2  0  0  0  0
  3  2  1  0  0  0  0
  4  5  1  0  0  0  0
  5 10  1  0  0  0  0
  5  6  2  0  0  0  0
  6 21  1  0  0  0  0
  8  2  1  0  0  0  0
  9  4  1  0  0  0  0
 11  3  1  0  0  0  0
 12 11  1  0  0  0  0
 13 16  2  0  0  0  0
 13 17  1  0  0  0  0
 14 13  1  0  0  0  0
 14 20  1  0  0  0  0
 15 13  2  0  0  0  0
 18 14  1  0  0  0  0
 19 14  1  0  0  0  0
 21 22  1  0  0  0  0
 22 25  1  0  0  0  0
 22 23  1  0  0  0  0
 24 22  1  0  0  0  0
M  RAD  3  11   2  12   3  17   2
M  END
