Coordinates from ORCA-job p-CH3O-Ph-N2-X-OTf-B3LYPG-6-31G_dp-scan-d09-49-n400
 OpenBabel08281820593D

 25 24  0  0  0  0  0  0  0  0999 V2000
   -1.7711   -0.0759   -4.7973 C   0  0  0  0  0  0  0  0  0  0  0  0
   -0.8341    0.7599   -5.3738 C   0  0  0  0  0  0  0  0  0  0  0  0
   -1.3479    1.8272   -6.1468 C   0  0  0  0  0  0  0  0  0  0  0  0
   -2.7226    2.0702   -6.3441 C   0  0  0  0  0  0  0  0  0  0  0  0
   -3.6287    1.2114   -5.7561 C   0  0  0  0  0  0  0  0  0  0  0  0
   -3.1553    0.1283   -4.9760 C   0  0  0  0  0  0  0  0  0  0  0  0
   -1.4509   -0.9169   -4.1913 H   0  0  0  0  0  0  0  0  0  0  0  0
    0.2897    0.6046   -5.2342 H   0  0  0  0  0  0  0  0  0  0  0  0
   -3.0563    2.9073   -6.9481 H   0  0  0  0  0  0  0  0  0  0  0  0
   -4.6888    1.3772   -5.9003 H   0  0  0  0  0  0  0  0  0  0  0  0
   -0.4568    2.6843   -6.7393 N   0  0  0  0  0  0  0  0  0  0  0  0
    0.3377    3.3193   -7.2025 N   0  0  0  0  0  0  0  0  0  0  0  0
    2.6838    0.8371   -6.1217 S   0  0  0  0  0  0  0  0  0  0  0  0
    3.4295   -0.7436   -6.7486 C   0  0  0  0  0  0  0  0  0  0  0  0
    1.9051    1.3378   -7.2896 O   0  0  0  0  0  0  0  0  0  0  0  0
    3.8180    1.6578   -5.6884 O   0  0  0  0  0  0  0  0  0  0  0  0
    1.7767    0.3619   -5.0219 O   0  0  0  0  0  0  0  0  0  0  0  0
    2.4666   -1.5813   -7.1705 F   0  0  0  0  0  0  0  0  0  0  0  0
    4.2545   -0.4980   -7.7752 F   0  0  0  0  0  0  0  0  0  0  0  0
    4.1236   -1.3539   -5.7788 F   0  0  0  0  0  0  0  0  0  0  0  0
   -3.9556   -0.7556   -4.3654 O   0  0  0  0  0  0  0  0  0  0  0  0
   -5.3751   -0.6355   -4.4871 C   0  0  0  0  0  0  0  0  0  0  0  0
   -5.7886   -1.4634   -3.9122 H   0  0  0  0  0  0  0  0  0  0  0  0
   -5.6904   -0.7232   -5.5322 H   0  0  0  0  0  0  0  0  0  0  0  0
   -5.7286    0.3129   -4.0684 H   0  0  0  0  0  0  0  0  0  0  0  0
  1  7  1  0  0  0  0
  2  8  1  0  0  0  0
  2  1  2  0  0  0  0
  3  2  1  0  0  0  0
  4  3  2  0  0  0  0
  4  5  1  0  0  0  0
  5  6  2  0  0  0  0
  6  1  1  0  0  0  0
  6 21  1  0  0  0  0
  9  4  1  0  0  0  0
 10  5  1  0  0  0  0
 11  3  1  0  0  0  0
 12 11  1  0  0  0  0
 13 16  2  0  0  0  0
 13 17  1  0  0  0  0
 14 13  1  0  0  0  0
 14 20  1  0  0  0  0
 15 13  2  0  0  0  0
 18 14  1  0  0  0  0
 19 14  1  0  0  0  0
 22 21  1  0  0  0  0
 22 25  1  0  0  0  0
 22 23  1  0  0  0  0
 24 22  1  0  0  0  0
M  RAD  3  11   2  12   3  17   2
M  END
