Coordinates from ORCA-job p-CH3O-Ph-N2-X-OTf-B3LYPG-6-31G_dp-scan-d09-49-n400
 OpenBabel08281820593D

 25 24  0  0  0  0  0  0  0  0999 V2000
   -2.1857   -0.5243   -4.9501 C   0  0  0  0  0  0  0  0  0  0  0  0
   -1.1112    0.0281   -5.6139 C   0  0  0  0  0  0  0  0  0  0  0  0
   -1.3038    1.2742   -6.2503 C   0  0  0  0  0  0  0  0  0  0  0  0
   -2.5335    1.9571   -6.2164 C   0  0  0  0  0  0  0  0  0  0  0  0
   -3.5988    1.3873   -5.5427 C   0  0  0  0  0  0  0  0  0  0  0  0
   -3.4313    0.1384   -4.9059 C   0  0  0  0  0  0  0  0  0  0  0  0
   -2.0906   -1.4771   -4.4427 H   0  0  0  0  0  0  0  0  0  0  0  0
   -0.1269   -0.4296   -5.6258 H   0  0  0  0  0  0  0  0  0  0  0  0
   -2.6403    2.9130   -6.7167 H   0  0  0  0  0  0  0  0  0  0  0  0
   -4.5471    1.9082   -5.5125 H   0  0  0  0  0  0  0  0  0  0  0  0
   -0.2834    1.8564   -6.9657 N   0  0  0  0  0  0  0  0  0  0  0  0
    0.5268    2.3007   -7.6008 N   0  0  0  0  0  0  0  0  0  0  0  0
    2.4385   -0.0966   -6.7207 S   0  0  0  0  0  0  0  0  0  0  0  0
    4.2281    0.3144   -6.4512 C   0  0  0  0  0  0  0  0  0  0  0  0
    2.1019    0.5926   -8.0071 O   0  0  0  0  0  0  0  0  0  0  0  0
    1.7563    0.5320   -5.5536 O   0  0  0  0  0  0  0  0  0  0  0  0
    2.3769   -1.5645   -6.7639 O   0  0  0  0  0  0  0  0  0  0  0  0
    4.9789   -0.1739   -7.4471 F   0  0  0  0  0  0  0  0  0  0  0  0
    4.4004    1.6454   -6.4018 F   0  0  0  0  0  0  0  0  0  0  0  0
    4.6581   -0.2104   -5.2952 F   0  0  0  0  0  0  0  0  0  0  0  0
   -4.3978   -0.4970   -4.2289 O   0  0  0  0  0  0  0  0  0  0  0  0
   -5.6948    0.0959   -4.1194 C   0  0  0  0  0  0  0  0  0  0  0  0
   -6.2860   -0.6027   -3.5282 H   0  0  0  0  0  0  0  0  0  0  0  0
   -6.1553    0.2216   -5.1053 H   0  0  0  0  0  0  0  0  0  0  0  0
   -5.6447    1.0610   -3.6038 H   0  0  0  0  0  0  0  0  0  0  0  0
  1  6  1  0  0  0  0
  1  7  1  0  0  0  0
  2  1  2  0  0  0  0
  3  4  2  0  0  0  0
  3  2  1  0  0  0  0
  4  5  1  0  0  0  0
  5 10  1  0  0  0  0
  5  6  2  0  0  0  0
  6 21  1  0  0  0  0
  8  2  1  0  0  0  0
  9  4  1  0  0  0  0
 11  3  1  0  0  0  0
 12 11  1  0  0  0  0
 13 14  1  0  0  0  0
 13 16  1  0  0  0  0
 14 19  1  0  0  0  0
 14 20  1  0  0  0  0
 15 13  2  0  0  0  0
 17 13  2  0  0  0  0
 18 14  1  0  0  0  0
 21 22  1  0  0  0  0
 22 25  1  0  0  0  0
 22 23  1  0  0  0  0
 24 22  1  0  0  0  0
M  RAD  3  11   2  12   3  16   2
M  END
