Coordinates from ORCA-job p-CH3O-Ph-N2-X-OTf-B3LYPG-6-31G_dp-scan-d09-49-n400
 OpenBabel08281820593D

 25 24  0  0  0  0  0  0  0  0999 V2000
   -2.2372   -0.5302   -4.8649 C   0  0  0  0  0  0  0  0  0  0  0  0
   -1.1301   -0.0167   -5.5068 C   0  0  0  0  0  0  0  0  0  0  0  0
   -1.2736    1.2210   -6.1704 C   0  0  0  0  0  0  0  0  0  0  0  0
   -2.4858    1.9353   -6.1883 C   0  0  0  0  0  0  0  0  0  0  0  0
   -3.5854    1.4011   -5.5409 C   0  0  0  0  0  0  0  0  0  0  0  0
   -3.4676    0.1615   -4.8749 C   0  0  0  0  0  0  0  0  0  0  0  0
   -2.1818   -1.4745   -4.3359 H   0  0  0  0  0  0  0  0  0  0  0  0
   -0.1491   -0.4898   -5.4942 H   0  0  0  0  0  0  0  0  0  0  0  0
   -2.5537    2.8844   -6.7081 H   0  0  0  0  0  0  0  0  0  0  0  0
   -4.5223    1.9428   -5.5530 H   0  0  0  0  0  0  0  0  0  0  0  0
   -0.2104    1.7661   -6.8523 N   0  0  0  0  0  0  0  0  0  0  0  0
    0.6362    2.1831   -7.4591 N   0  0  0  0  0  0  0  0  0  0  0  0
    2.5297   -0.3119   -6.8128 S   0  0  0  0  0  0  0  0  0  0  0  0
    4.1811    0.4793   -6.5102 C   0  0  0  0  0  0  0  0  0  0  0  0
    2.0255    0.3932   -8.0345 O   0  0  0  0  0  0  0  0  0  0  0  0
    1.7557    0.0647   -5.5937 O   0  0  0  0  0  0  0  0  0  0  0  0
    2.8046   -1.7416   -6.9830 O   0  0  0  0  0  0  0  0  0  0  0  0
    5.0022    0.2743   -7.5481 F   0  0  0  0  0  0  0  0  0  0  0  0
    4.0364    1.8060   -6.3408 F   0  0  0  0  0  0  0  0  0  0  0  0
    4.7514   -0.0265   -5.4084 F   0  0  0  0  0  0  0  0  0  0  0  0
   -4.4708   -0.4376   -4.2176 O   0  0  0  0  0  0  0  0  0  0  0  0
   -5.7562    0.1871   -4.1629 C   0  0  0  0  0  0  0  0  0  0  0  0
   -6.3840   -0.4872   -3.5814 H   0  0  0  0  0  0  0  0  0  0  0  0
   -6.1795    0.3069   -5.1661 H   0  0  0  0  0  0  0  0  0  0  0  0
   -5.7010    1.1594   -3.6617 H   0  0  0  0  0  0  0  0  0  0  0  0
  1  7  1  0  0  0  0
  2  8  1  0  0  0  0
  2  1  2  0  0  0  0
  3  2  1  0  0  0  0
  4  3  2  0  0  0  0
  4  5  1  0  0  0  0
  5  6  2  0  0  0  0
  6  1  1  0  0  0  0
  6 21  1  0  0  0  0
  9  4  1  0  0  0  0
 10  5  1  0  0  0  0
 11  3  1  0  0  0  0
 12 11  1  0  0  0  0
 13 14  1  0  0  0  0
 13 16  1  0  0  0  0
 14 19  1  0  0  0  0
 14 20  1  0  0  0  0
 15 13  2  0  0  0  0
 17 13  2  0  0  0  0
 18 14  1  0  0  0  0
 21 22  1  0  0  0  0
 22 25  1  0  0  0  0
 22 23  1  0  0  0  0
 24 22  1  0  0  0  0
M  RAD  3  11   2  12   3  16   2
M  END
