Coordinates from ORCA-job p-CH3O-Ph-N2-X-OTf-B3LYPG-6-31G_dp-scan-d09-49-n400
 OpenBabel08281820593D

 25 24  0  0  0  0  0  0  0  0999 V2000
   -2.0563   -0.3862   -4.9890 C   0  0  0  0  0  0  0  0  0  0  0  0
   -1.0478    0.3057   -5.6266 C   0  0  0  0  0  0  0  0  0  0  0  0
   -1.3997    1.5120   -6.2744 C   0  0  0  0  0  0  0  0  0  0  0  0
   -2.7096    2.0203   -6.2792 C   0  0  0  0  0  0  0  0  0  0  0  0
   -3.7060    1.3056   -5.6390 C   0  0  0  0  0  0  0  0  0  0  0  0
   -3.3837    0.0939   -4.9893 C   0  0  0  0  0  0  0  0  0  0  0  0
   -1.8417   -1.3135   -4.4702 H   0  0  0  0  0  0  0  0  0  0  0  0
   -0.0133   -0.0452   -5.6052 H   0  0  0  0  0  0  0  0  0  0  0  0
   -2.9306    2.9548   -6.7826 H   0  0  0  0  0  0  0  0  0  0  0  0
   -4.7191    1.6869   -5.6413 H   0  0  0  0  0  0  0  0  0  0  0  0
   -0.4225    2.2311   -6.9250 N   0  0  0  0  0  0  0  0  0  0  0  0
    0.5239    2.5907   -7.4168 N   0  0  0  0  0  0  0  0  0  0  0  0
    2.5753    0.5965   -6.1564 S   0  0  0  0  0  0  0  0  0  0  0  0
    4.1361   -0.2554   -6.6930 C   0  0  0  0  0  0  0  0  0  0  0  0
    1.7965    0.7044   -7.4427 O   0  0  0  0  0  0  0  0  0  0  0  0
    2.9984    1.8933   -5.6041 O   0  0  0  0  0  0  0  0  0  0  0  0
    1.9456   -0.3535   -5.2059 O   0  0  0  0  0  0  0  0  0  0  0  0
    3.8557   -1.4458   -7.2418 F   0  0  0  0  0  0  0  0  0  0  0  0
    4.7869    0.4884   -7.5974 F   0  0  0  0  0  0  0  0  0  0  0  0
    4.9403   -0.4493   -5.6394 F   0  0  0  0  0  0  0  0  0  0  0  0
   -4.2725   -0.6698   -4.3382 O   0  0  0  0  0  0  0  0  0  0  0  0
   -5.6425   -0.2657   -4.2746 C   0  0  0  0  0  0  0  0  0  0  0  0
   -6.1489   -1.0391   -3.6981 H   0  0  0  0  0  0  0  0  0  0  0  0
   -6.0840   -0.2079   -5.2755 H   0  0  0  0  0  0  0  0  0  0  0  0
   -5.7462    0.6981   -3.7642 H   0  0  0  0  0  0  0  0  0  0  0  0
  1  7  1  0  0  0  0
  2  8  1  0  0  0  0
  2  1  2  0  0  0  0
  3  2  1  0  0  0  0
  4  3  2  0  0  0  0
  4  5  1  0  0  0  0
  5  6  2  0  0  0  0
  6  1  1  0  0  0  0
  6 21  1  0  0  0  0
  9  4  1  0  0  0  0
 10  5  1  0  0  0  0
 11  3  1  0  0  0  0
 12 11  1  0  0  0  0
 13 16  2  0  0  0  0
 13 17  1  0  0  0  0
 14 13  1  0  0  0  0
 14 20  1  0  0  0  0
 15 13  2  0  0  0  0
 18 14  1  0  0  0  0
 19 14  1  0  0  0  0
 21 22  1  0  0  0  0
 22 25  1  0  0  0  0
 22 23  1  0  0  0  0
 24 22  1  0  0  0  0
M  RAD  3  11   2  12   3  17   2
M  END
