Coordinates from ORCA-job p-CH3O-Ph-N2-X-OTf-B3LYPG-6-31G_dp-scan-d09-49-n400
 OpenBabel08281820593D

 25 24  0  0  0  0  0  0  0  0999 V2000
   -2.1362   -0.6364   -5.2667 C   0  0  0  0  0  0  0  0  0  0  0  0
   -1.1499   -0.1082   -6.0717 C   0  0  0  0  0  0  0  0  0  0  0  0
   -1.3763    1.1738   -6.6238 C   0  0  0  0  0  0  0  0  0  0  0  0
   -2.5483    1.9099   -6.3731 C   0  0  0  0  0  0  0  0  0  0  0  0
   -3.5186    1.3666   -5.5510 C   0  0  0  0  0  0  0  0  0  0  0  0
   -3.3167    0.0866   -4.9907 C   0  0  0  0  0  0  0  0  0  0  0  0
   -2.0141   -1.6154   -4.8183 H   0  0  0  0  0  0  0  0  0  0  0  0
   -0.2274   -0.6468   -6.2693 H   0  0  0  0  0  0  0  0  0  0  0  0
   -2.6806    2.8913   -6.8144 H   0  0  0  0  0  0  0  0  0  0  0  0
   -4.4194    1.9311   -5.3492 H   0  0  0  0  0  0  0  0  0  0  0  0
   -0.4414    1.7443   -7.4505 N   0  0  0  0  0  0  0  0  0  0  0  0
    0.3230    2.1789   -8.1453 N   0  0  0  0  0  0  0  0  0  0  0  0
    2.3031    0.2324   -6.6425 S   0  0  0  0  0  0  0  0  0  0  0  0
    4.0611    0.2441   -6.0457 C   0  0  0  0  0  0  0  0  0  0  0  0
    2.3654    0.8806   -7.9867 O   0  0  0  0  0  0  0  0  0  0  0  0
    1.5617    1.0456   -5.6428 O   0  0  0  0  0  0  0  0  0  0  0  0
    1.9215   -1.1983   -6.6639 O   0  0  0  0  0  0  0  0  0  0  0  0
    4.8437   -0.4594   -6.8743 F   0  0  0  0  0  0  0  0  0  0  0  0
    4.5261    1.5002   -5.9814 F   0  0  0  0  0  0  0  0  0  0  0  0
    4.1365   -0.2988   -4.8220 F   0  0  0  0  0  0  0  0  0  0  0  0
   -4.1924   -0.5280   -4.1838 O   0  0  0  0  0  0  0  0  0  0  0  0
   -5.4117    0.1290   -3.8281 C   0  0  0  0  0  0  0  0  0  0  0  0
   -5.9321   -0.5614   -3.1647 H   0  0  0  0  0  0  0  0  0  0  0  0
   -6.0287    0.3215   -4.7125 H   0  0  0  0  0  0  0  0  0  0  0  0
   -5.2141    1.0669   -3.2976 H   0  0  0  0  0  0  0  0  0  0  0  0
  1  6  1  0  0  0  0
  1  7  1  0  0  0  0
  2  1  2  0  0  0  0
  3  4  2  0  0  0  0
  3  2  1  0  0  0  0
  4  5  1  0  0  0  0
  5 10  1  0  0  0  0
  5  6  2  0  0  0  0
  6 21  1  0  0  0  0
  8  2  1  0  0  0  0
  9  4  1  0  0  0  0
 11  3  1  0  0  0  0
 12 11  1  0  0  0  0
 13 14  1  0  0  0  0
 13 16  1  0  0  0  0
 14 19  1  0  0  0  0
 14 20  1  0  0  0  0
 15 13  2  0  0  0  0
 17 13  2  0  0  0  0
 18 14  1  0  0  0  0
 21 22  1  0  0  0  0
 22 25  1  0  0  0  0
 22 23  1  0  0  0  0
 24 22  1  0  0  0  0
M  RAD  3  11   2  12   3  16   2
M  END
