Coordinates from ORCA-job x2-4-NO2-Ph-N2-OTs-v2-B3LYPG-6-31G_dp
 OpenBabel06301920063D

 48 48  0  0  0  0  0  0  0  0999 V2000
   -3.8162   -0.7224   -0.1678 C   0  0  0  0  0  0  0  0  0  0  0  0
   -4.4839    0.0408    0.8043 C   0  0  0  0  0  0  0  0  0  0  0  0
   -5.7838   -0.2219    1.2725 C   0  0  0  0  0  0  0  0  0  0  0  0
   -6.4433   -1.3204    0.7416 C   0  0  0  0  0  0  0  0  0  0  0  0
   -5.7899   -2.0892   -0.2238 C   0  0  0  0  0  0  0  0  0  0  0  0
   -4.5053   -1.8140   -0.6868 C   0  0  0  0  0  0  0  0  0  0  0  0
   -2.8122   -0.4392   -0.4898 H   0  0  0  0  0  0  0  0  0  0  0  0
   -6.2464    0.4090    2.0230 H   0  0  0  0  0  0  0  0  0  0  0  0
   -7.4443   -1.5898    1.0546 H   0  0  0  0  0  0  0  0  0  0  0  0
   -4.0615   -2.4508   -1.4422 H   0  0  0  0  0  0  0  0  0  0  0  0
   -3.8145    1.1345    1.3358 N   0  0  0  0  0  0  0  0  0  0  0  0
   -3.1841    1.9633    1.7394 N   0  0  0  0  0  0  0  0  0  0  0  0
   -0.3069    1.1125    0.2586 S   0  0  0  0  0  0  0  0  0  0  0  0
   -0.9492    1.1250    1.6070 O   0  0  0  0  0  0  0  0  0  0  0  0
    0.9696    0.2860    0.3152 O   0  0  0  0  0  0  0  0  0  0  0  0
   -1.2097    0.6825   -0.8405 O   0  0  0  0  0  0  0  0  0  0  0  0
    2.5758   -0.7143    1.4269 H   0  0  0  0  0  0  0  0  0  0  0  0
    3.4782   -1.2333    1.1202 C   0  0  0  0  0  0  0  0  0  0  0  0
    3.7804   -1.3558   -0.2488 C   0  0  0  0  0  0  0  0  0  0  0  0
    4.3750   -1.7978    2.0197 C   0  0  0  0  0  0  0  0  0  0  0  0
    4.9191   -2.0060   -0.7469 C   0  0  0  0  0  0  0  0  0  0  0  0
    5.5085   -2.4451    1.5294 C   0  0  0  0  0  0  0  0  0  0  0  0
    4.2108   -1.7443    3.0890 H   0  0  0  0  0  0  0  0  0  0  0  0
    5.8009   -2.5619    0.1706 C   0  0  0  0  0  0  0  0  0  0  0  0
    5.0990   -2.0685   -1.8141 H   0  0  0  0  0  0  0  0  0  0  0  0
    2.8896   -0.7942   -1.1596 N   0  0  0  0  0  0  0  0  0  0  0  0
    1.9849   -0.2421   -1.5438 N   0  0  0  0  0  0  0  0  0  0  0  0
   -6.5084   -3.2648   -0.7881 N   0  0  0  0  0  0  0  0  0  0  0  0
   -5.9094   -3.9262   -1.6269 O   0  0  0  0  0  0  0  0  0  0  0  0
   -7.6390   -3.4740   -0.3661 O   0  0  0  0  0  0  0  0  0  0  0  0
    0.1911    2.7895   -0.1052 C   0  0  0  0  0  0  0  0  0  0  0  0
    0.6453    3.6109    0.9316 C   0  0  0  0  0  0  0  0  0  0  0  0
    0.1587    3.2527   -1.4207 C   0  0  0  0  0  0  0  0  0  0  0  0
    1.0701    4.9032    0.6381 C   0  0  0  0  0  0  0  0  0  0  0  0
    0.6475    3.2440    1.9526 H   0  0  0  0  0  0  0  0  0  0  0  0
    0.5887    4.5512   -1.6962 C   0  0  0  0  0  0  0  0  0  0  0  0
   -0.2143    2.6098   -2.2106 H   0  0  0  0  0  0  0  0  0  0  0  0
    1.0513    5.3950   -0.6777 C   0  0  0  0  0  0  0  0  0  0  0  0
    1.4183    5.5450    1.4432 H   0  0  0  0  0  0  0  0  0  0  0  0
    0.5584    4.9161   -2.7191 H   0  0  0  0  0  0  0  0  0  0  0  0
    1.5036    6.8038   -0.9748 C   0  0  0  0  0  0  0  0  0  0  0  0
    2.5022    6.9941   -0.5674 H   0  0  0  0  0  0  0  0  0  0  0  0
    1.5339    6.9983   -2.0497 H   0  0  0  0  0  0  0  0  0  0  0  0
    0.8274    7.5377   -0.5215 H   0  0  0  0  0  0  0  0  0  0  0  0
    6.7000   -3.0782   -0.1417 H   0  0  0  0  0  0  0  0  0  0  0  0
    6.4573   -3.0440    2.5071 N   0  0  0  0  0  0  0  0  0  0  0  0
    6.1741   -2.9275    3.6931 O   0  0  0  0  0  0  0  0  0  0  0  0
    7.4437   -3.6052    2.0458 O   0  0  0  0  0  0  0  0  0  0  0  0
  1  2  2  0  0  0  0
  2  3  1  0  0  0  0
  2 11  1  0  0  0  0
  3  8  1  0  0  0  0
  4  9  1  0  0  0  0
  4  3  2  0  0  0  0
  5  4  1  0  0  0  0
  6  5  2  0  0  0  0
  6  1  1  0  0  0  0
  7  1  1  0  0  0  0
 10  6  1  0  0  0  0
 11 12  1  0  0  0  0
 13 15  2  0  0  0  0
 13 14  1  0  0  0  0
 16 13  2  0  0  0  0
 18 17  1  0  0  0  0
 18 20  2  0  0  0  0
 19 18  1  0  0  0  0
 20 23  1  0  0  0  0
 21 19  2  0  0  0  0
 21 24  1  0  0  0  0
 22 20  1  0  0  0  0
 22 46  1  0  0  0  0
 24 22  2  0  0  0  0
 25 21  1  0  0  0  0
 26 19  1  0  0  0  0
 27 26  1  0  0  0  0
 28 30  2  0  0  0  0
 28  5  1  0  0  0  0
 29 28  2  0  0  0  0
 31 13  1  0  0  0  0
 31 32  2  0  0  0  0
 32 35  1  0  0  0  0
 33 31  1  0  0  0  0
 34 32  1  0  0  0  0
 34 39  1  0  0  0  0
 36 33  2  0  0  0  0
 36 38  1  0  0  0  0
 37 33  1  0  0  0  0
 38 34  2  0  0  0  0
 40 36  1  0  0  0  0
 41 38  1  0  0  0  0
 41 42  1  0  0  0  0
 41 44  1  0  0  0  0
 43 41  1  0  0  0  0
 45 24  1  0  0  0  0
 46 47  2  0  0  0  0
 48 46  2  0  0  0  0
M  RAD  5  11   2  12   3  14   2  26   2  27   3
M  END
