48
Coordinates from ORCA-job x2-4-NO2-Ph-N2-OTs-v2-B3LYPG-6-31G_dp
  C   -3.81621651268171     -0.72235804359525     -0.16780517881519
  C   -4.48385640066108      0.04080445956381      0.80427804907322
  C   -5.78383868700989     -0.22191449070459      1.27249932852458
  C   -6.44329607697103     -1.32038027727130      0.74155254877120
  C   -5.78989584854016     -2.08920613376051     -0.22375098415090
  C   -4.50530390103906     -1.81403058553332     -0.68684071956639
  H   -2.81222697118148     -0.43915048405985     -0.48976223930211
  H   -6.24638669988803      0.40903676316952      2.02296590553849
  H   -7.44430954807481     -1.58983647080852      1.05455393675352
  H   -4.06148437963960     -2.45076409121091     -1.44215935188772
  N   -3.81451173492724      1.13450515005814      1.33582739537217
  N   -3.18411511996339      1.96327990042132      1.73940736369413
  S   -0.30689963384170      1.11245202993443      0.25863054971376
  O   -0.94924201247537      1.12495997631221      1.60696307835262
  O   0.96957104933740      0.28598769172519      0.31524038936267
  O   -1.20972986895582      0.68248226428573     -0.84052103370535
  H   2.57577330194249     -0.71425873791720      1.42692518803353
  C   3.47824616439350     -1.23329766921258      1.12018954471346
  C   3.78035632350940     -1.35582041812952     -0.24883878504208
  C   4.37503539462160     -1.79784779385581      2.01972370883017
  C   4.91910688117424     -2.00601978507096     -0.74690562166085
  C   5.50848655843110     -2.44511509148729      1.52941069074818
  H   4.21080356421400     -1.74430751952996      3.08895971246890
  C   5.80089777709744     -2.56191591790993      0.17056853051194
  H   5.09896173376723     -2.06849196171722     -1.81410365555288
  N   2.88964587955684     -0.79418459811220     -1.15957503155702
  N   1.98485147870362     -0.24208321709020     -1.54381478868757
  N   -6.50835951594504     -3.26475704552784     -0.78811332155613
  O   -5.90937140359695     -3.92624483288855     -1.62688336071141
  O   -7.63900747739309     -3.47401776362107     -0.36607808264449
  C   0.19110541141473      2.78948656951075     -0.10517537641432
  C   0.64529914400890      3.61091061670695      0.93164676435082
  C   0.15867408931076      3.25269828555405     -1.42066721777951
  C   1.07006752334119      4.90318007496787      0.63814463099609
  H   0.64752701647255      3.24402455920313      1.95260009678541
  C   0.58873189819538      4.55118956828539     -1.69616601502387
  H   -0.21432700102119      2.60975916322427     -2.21058879265887
  C   1.05128900092997      5.39501187686261     -0.67773797870603
  H   1.41833221660212      5.54496819278208      1.44321876083803
  H   0.55844068329728      4.91611810026957     -2.71913744520109
  C   1.50362623116471      6.80384863252538     -0.97483159486943
  H   2.50220749088858      6.99414669788599     -0.56741008636309
  H   1.53391409567244      6.99830492006396     -2.04965959644336
  H   0.82738734095091      7.53767932083992     -0.52145192889343
  H   6.69998949347702     -3.07815320285724     -0.14166942493577
  N   6.45734472726648     -3.04398735729962      2.50710405010119
  O   6.17414369368483     -2.92747498146887      3.69312170955866
  O   7.44366263037996     -3.60521634351197      2.04581567903615
