Coordinates from ORCA-job x2-4-NO2-Ph-N2-BF4-v2-B3LYPG-aug-cc-pVDZ
 OpenBabel06301920063D

 35 34  0  0  0  0  0  0  0  0999 V2000
    3.1603    0.1187    0.0895 C   0  0  0  0  0  0  0  0  0  0  0  0
    3.7375    1.2183    0.7464 C   0  0  0  0  0  0  0  0  0  0  0  0
    5.0588    1.6636    0.5489 C   0  0  0  0  0  0  0  0  0  0  0  0
    5.8404    0.9626   -0.3607 C   0  0  0  0  0  0  0  0  0  0  0  0
    5.2768   -0.1317   -1.0225 C   0  0  0  0  0  0  0  0  0  0  0  0
    3.9661   -0.5638   -0.8178 C   0  0  0  0  0  0  0  0  0  0  0  0
    2.1368   -0.1839    0.2926 H   0  0  0  0  0  0  0  0  0  0  0  0
    5.4500    2.5232    1.0896 H   0  0  0  0  0  0  0  0  0  0  0  0
    6.8699    1.2484   -0.5629 H   0  0  0  0  0  0  0  0  0  0  0  0
    3.5885   -1.4257   -1.3628 H   0  0  0  0  0  0  0  0  0  0  0  0
    2.9672    1.9387    1.6570 N   0  0  0  0  0  0  0  0  0  0  0  0
    2.3783    2.5372    2.3814 N   0  0  0  0  0  0  0  0  0  0  0  0
   -2.0458    0.8490    0.4028 H   0  0  0  0  0  0  0  0  0  0  0  0
   -3.0679    0.5916    0.1397 C   0  0  0  0  0  0  0  0  0  0  0  0
   -3.6425   -0.6211    0.5558 C   0  0  0  0  0  0  0  0  0  0  0  0
   -3.8746    1.4434   -0.6101 C   0  0  0  0  0  0  0  0  0  0  0  0
   -4.9620   -1.0203    0.2681 C   0  0  0  0  0  0  0  0  0  0  0  0
   -5.1835    1.0586   -0.9019 C   0  0  0  0  0  0  0  0  0  0  0  0
   -3.4990    2.3999   -0.9657 H   0  0  0  0  0  0  0  0  0  0  0  0
   -5.7445   -0.1499   -0.4800 C   0  0  0  0  0  0  0  0  0  0  0  0
   -5.3511   -1.9737    0.6201 H   0  0  0  0  0  0  0  0  0  0  0  0
   -2.8713   -1.5107    1.3011 N   0  0  0  0  0  0  0  0  0  0  0  0
   -2.2819   -2.2434    1.8889 N   0  0  0  0  0  0  0  0  0  0  0  0
    6.1251   -0.8774   -2.0011 N   0  0  0  0  0  0  0  0  0  0  0  0
    5.6046   -1.8246   -2.5718 O   0  0  0  0  0  0  0  0  0  0  0  0
    7.2707   -0.4787   -2.1522 O   0  0  0  0  0  0  0  0  0  0  0  0
    1.2047   -0.0150    2.4659 F   0  0  0  0  0  0  0  0  0  0  0  0
   -1.1111    0.2395    2.4909 F   0  0  0  0  0  0  0  0  0  0  0  0
   -0.0895   -0.8573    0.7364 F   0  0  0  0  0  0  0  0  0  0  0  0
    0.1849    1.4179    0.9720 F   0  0  0  0  0  0  0  0  0  0  0  0
    0.0473    0.1937    1.6915 B   0  0  0  0  0  0  0  0  0  0  0  0
   -6.7727   -0.3912   -0.7389 H   0  0  0  0  0  0  0  0  0  0  0  0
   -6.0328    1.9867   -1.7085 N   0  0  0  0  0  0  0  0  0  0  0  0
   -7.1768    1.6241   -1.9410 O   0  0  0  0  0  0  0  0  0  0  0  0
   -5.5147    3.0325   -2.0714 O   0  0  0  0  0  0  0  0  0  0  0  0
  1  7  1  0  0  0  0
  1  2  2  0  0  0  0
  2 11  1  0  0  0  0
  3  2  1  0  0  0  0
  3  8  1  0  0  0  0
  4  3  2  0  0  0  0
  5  6  2  0  0  0  0
  5  4  1  0  0  0  0
  6  1  1  0  0  0  0
  9  4  1  0  0  0  0
 10  6  1  0  0  0  0
 11 12  1  0  0  0  0
 14 13  1  0  0  0  0
 14 15  2  0  0  0  0
 15 22  1  0  0  0  0
 16 14  1  0  0  0  0
 17 15  1  0  0  0  0
 17 21  1  0  0  0  0
 18 16  2  0  0  0  0
 18 20  1  0  0  0  0
 19 16  1  0  0  0  0
 20 17  2  0  0  0  0
 22 23  1  0  0  0  0
 24  5  1  0  0  0  0
 25 24  2  0  0  0  0
 26 24  2  0  0  0  0
 29 31  1  0  0  0  0
 30 31  1  0  0  0  0
 31 27  1  0  0  0  0
 31 28  1  0  0  0  0
 32 20  1  0  0  0  0
 33 18  1  0  0  0  0
 34 33  2  0  0  0  0
 35 33  2  0  0  0  0
M  RAD  4  11   2  12   3  22   2  23   3
M  END
