38
Coordinates from ORCA-job x2-4-NO2-Ph-N2-OTf-v2-B3LYPG-aug-cc-pVDZ
  C   -4.15434431386651     -0.30706148011831     -0.47669080708748
  C   -4.15064001326339     -0.56808147169025      0.90202301435320
  C   -5.28126843233523     -0.96935896195205      1.64151594106078
  C   -6.47691194394272     -1.11737903409058      0.95065891823337
  C   -6.49225703865275     -0.86306548887673     -0.42403799333571
  C   -5.36680841701512     -0.46472504074270     -1.14506039287770
  H   -3.23871930408397      0.01305651914132     -0.97155001426397
  H   -5.21745468940417     -1.15599296540459      2.71182094651277
  H   -7.38973499910622     -1.42373246286751      1.45602575144013
  H   -5.44622653689379     -0.27914466110209     -2.21360471847237
  N   -2.96081783461054     -0.43605132833848      1.62366614157305
  N   -2.07625181993148     -0.37902244602141      2.29613903053066
  S   0.00141980031404      0.78083676357403     -0.08323858660579
  O   0.26565824200233     -0.13897488112366      1.08254523265578
  O   1.06882172261235      0.72168956825079     -1.13937967873324
  O   -1.41617086941619      0.75172828645123     -0.57183890853240
  C   0.18508880663259      2.51651123646333      0.64772216096313
  F   1.42733197528961      2.67381710840006      1.14001104196537
  F   -0.69981508221002      2.68395946501952      1.64748920165992
  F   -0.03284535656969      3.44699529000727     -0.28753220771724
  H   2.40892952206667     -0.44436827705987      0.37307307089743
  C   3.46144278515895     -0.71766901414962      0.30228321391104
  C   4.24061513879077     -0.35118676407829     -0.80703942960528
  C   4.10057597331301     -1.44624464325454      1.30316338093979
  C   5.60488368359966     -0.66762530273080     -0.96762690047590
  C   5.44975828115021     -1.76664744358967      1.15608517670378
  H   3.55899836839273     -1.76249917433516      2.19142321464449
  C   6.21478545407187     -1.39410459833604      0.04620961175735
  H   6.15617159338678     -0.35341347470616     -1.85177740268908
  N   3.65033485342536      0.37910946732250     -1.83843282017756
  N   3.23691761357181      0.96065825610514     -2.68874298559137
  N   -7.78449673934551     -1.02743496539620     -1.15606562745821
  O   -7.76981423371347     -0.80510976432317     -2.35765568264752
  O   -8.75268644978584     -1.37221741318391     -0.49357143829145
  H   7.26413007110154     -1.67386624903112     -0.00879494813342
  N   6.11695711741218     -2.55024300412390      2.23965674531776
  O   7.30215295513791     -2.80680316306696      2.08379729932117
  O   5.42429011671627     -2.87243848704142      3.19363144825471
