Coordinates from ORCA-job p-NO2-Ph-N2-X-OTf-B3LYPG-6-31G_dp-scan-d09-49-n400
 OpenBabel08281820573D

 23 22  0  0  0  0  0  0  0  0999 V2000
   -1.9805   -0.7168   -5.0218 C   0  0  0  0  0  0  0  0  0  0  0  0
   -0.9468    0.2034   -5.1828 C   0  0  0  0  0  0  0  0  0  0  0  0
   -1.2980    1.5606   -5.1252 C   0  0  0  0  0  0  0  0  0  0  0  0
   -2.6014    2.0302   -4.9034 C   0  0  0  0  0  0  0  0  0  0  0  0
   -3.6144    1.0944   -4.7574 C   0  0  0  0  0  0  0  0  0  0  0  0
   -3.2801   -0.2594   -4.8190 C   0  0  0  0  0  0  0  0  0  0  0  0
   -1.7831   -1.7814   -5.0539 H   0  0  0  0  0  0  0  0  0  0  0  0
    0.0907   -0.1217   -5.3312 H   0  0  0  0  0  0  0  0  0  0  0  0
   -2.8038    3.0944   -4.8589 H   0  0  0  0  0  0  0  0  0  0  0  0
   -4.6432    1.3866   -4.5927 H   0  0  0  0  0  0  0  0  0  0  0  0
   -4.3670   -1.2564   -4.6528 N   0  0  0  0  0  0  0  0  0  0  0  0
   -5.5010   -0.8208   -4.4757 O   0  0  0  0  0  0  0  0  0  0  0  0
   -4.0535   -2.4401   -4.7045 O   0  0  0  0  0  0  0  0  0  0  0  0
   -0.2904    2.5206   -5.2774 N   0  0  0  0  0  0  0  0  0  0  0  0
    0.7033    2.9569   -5.5918 N   0  0  0  0  0  0  0  0  0  0  0  0
    2.5730    0.6207   -6.0300 S   0  0  0  0  0  0  0  0  0  0  0  0
    3.7307    0.0062   -7.3504 C   0  0  0  0  0  0  0  0  0  0  0  0
    1.5959    1.4593   -6.8405 O   0  0  0  0  0  0  0  0  0  0  0  0
    3.3868    1.4010   -5.0919 O   0  0  0  0  0  0  0  0  0  0  0  0
    1.9143   -0.5983   -5.5006 O   0  0  0  0  0  0  0  0  0  0  0  0
    3.0545   -0.6911   -8.2706 F   0  0  0  0  0  0  0  0  0  0  0  0
    4.3367    1.0378   -7.9461 F   0  0  0  0  0  0  0  0  0  0  0  0
    4.6567   -0.7849   -6.7995 F   0  0  0  0  0  0  0  0  0  0  0  0
  1  6  2  0  0  0  0
  2  3  2  0  0  0  0
  2  1  1  0  0  0  0
  3  4  1  0  0  0  0
  4  9  1  0  0  0  0
  4  5  2  0  0  0  0
  5 10  1  0  0  0  0
  6  5  1  0  0  0  0
  6 11  1  0  0  0  0
  7  1  1  0  0  0  0
  8  2  1  0  0  0  0
 11 12  2  0  0  0  0
 13 11  2  0  0  0  0
 14  3  1  0  0  0  0
 15 14  1  0  0  0  0
 16 20  2  0  0  0  0
 16 19  1  0  0  0  0
 17 23  1  0  0  0  0
 17 16  1  0  0  0  0
 18 16  2  0  0  0  0
 21 17  1  0  0  0  0
 22 17  1  0  0  0  0
M  RAD  3  14   2  15   3  19   2
M  END
