Coordinates from ORCA-job p-NO2-Ph-N2-X-OTf-B3LYPG-6-31G_dp-scan-d09-49-n400
 OpenBabel08281820573D

 23 22  0  0  0  0  0  0  0  0999 V2000
   -2.0389   -0.7289   -5.0593 C   0  0  0  0  0  0  0  0  0  0  0  0
   -0.9953    0.1683   -5.2735 C   0  0  0  0  0  0  0  0  0  0  0  0
   -1.3058    1.5341   -5.1871 C   0  0  0  0  0  0  0  0  0  0  0  0
   -2.5834    2.0298   -4.8884 C   0  0  0  0  0  0  0  0  0  0  0  0
   -3.6101    1.1180   -4.6908 C   0  0  0  0  0  0  0  0  0  0  0  0
   -3.3137   -0.2425   -4.7801 C   0  0  0  0  0  0  0  0  0  0  0  0
   -1.8686   -1.7975   -5.1083 H   0  0  0  0  0  0  0  0  0  0  0  0
    0.0175   -0.1823   -5.4817 H   0  0  0  0  0  0  0  0  0  0  0  0
   -2.7566    3.0982   -4.8240 H   0  0  0  0  0  0  0  0  0  0  0  0
   -4.6202    1.4342   -4.4655 H   0  0  0  0  0  0  0  0  0  0  0  0
   -4.4128   -1.2149   -4.5595 N   0  0  0  0  0  0  0  0  0  0  0  0
   -5.5245   -0.7543   -4.3164 O   0  0  0  0  0  0  0  0  0  0  0  0
   -4.1308   -2.4052   -4.6360 O   0  0  0  0  0  0  0  0  0  0  0  0
   -0.2896    2.4781   -5.3860 N   0  0  0  0  0  0  0  0  0  0  0  0
    0.7102    2.8687   -5.7465 N   0  0  0  0  0  0  0  0  0  0  0  0
    2.5328    0.5339   -6.0675 S   0  0  0  0  0  0  0  0  0  0  0  0
    3.8533    0.0937   -7.3011 C   0  0  0  0  0  0  0  0  0  0  0  0
    1.5473    1.3202   -6.9256 O   0  0  0  0  0  0  0  0  0  0  0  0
    3.1828    1.3533   -5.0367 O   0  0  0  0  0  0  0  0  0  0  0  0
    1.9501   -0.7577   -5.6421 O   0  0  0  0  0  0  0  0  0  0  0  0
    3.3300   -0.6181   -8.3050 F   0  0  0  0  0  0  0  0  0  0  0  0
    4.4052    1.2049   -7.7979 F   0  0  0  0  0  0  0  0  0  0  0  0
    4.8003   -0.6328   -6.6991 F   0  0  0  0  0  0  0  0  0  0  0  0
  1  6  2  0  0  0  0
  2  3  2  0  0  0  0
  2  1  1  0  0  0  0
  3  4  1  0  0  0  0
  4  9  1  0  0  0  0
  4  5  2  0  0  0  0
  5 10  1  0  0  0  0
  6  5  1  0  0  0  0
  6 11  1  0  0  0  0
  7  1  1  0  0  0  0
  8  2  1  0  0  0  0
 11 12  2  0  0  0  0
 13 11  2  0  0  0  0
 14  3  1  0  0  0  0
 15 14  1  0  0  0  0
 16 20  2  0  0  0  0
 16 19  1  0  0  0  0
 17 23  1  0  0  0  0
 17 16  1  0  0  0  0
 18 16  2  0  0  0  0
 21 17  1  0  0  0  0
 22 17  1  0  0  0  0
M  RAD  3  14   2  15   3  19   2
M  END
