Coordinates from ORCA-job p-NO2-Ph-N2-X-OTf-B3LYPG-6-31G_dp-scan-d09-49-n400
 OpenBabel08281820583D

 23 22  0  0  0  0  0  0  0  0999 V2000
   -2.5212   -0.7017   -5.6719 C   0  0  0  0  0  0  0  0  0  0  0  0
   -1.5086    0.0041   -6.3087 C   0  0  0  0  0  0  0  0  0  0  0  0
   -1.2289    1.2979   -5.8453 C   0  0  0  0  0  0  0  0  0  0  0  0
   -1.9138    1.9099   -4.7903 C   0  0  0  0  0  0  0  0  0  0  0  0
   -2.9099    1.1830   -4.1501 C   0  0  0  0  0  0  0  0  0  0  0  0
   -3.1949   -0.1023   -4.6079 C   0  0  0  0  0  0  0  0  0  0  0  0
   -2.7866   -1.7054   -5.9771 H   0  0  0  0  0  0  0  0  0  0  0  0
   -0.9385   -0.4126   -7.1294 H   0  0  0  0  0  0  0  0  0  0  0  0
   -1.6579    2.9153   -4.4785 H   0  0  0  0  0  0  0  0  0  0  0  0
   -3.4681    1.5914   -3.3177 H   0  0  0  0  0  0  0  0  0  0  0  0
   -4.2728   -0.8655   -3.9342 N   0  0  0  0  0  0  0  0  0  0  0  0
   -4.8441   -0.3171   -2.9968 O   0  0  0  0  0  0  0  0  0  0  0  0
   -4.5173   -1.9868   -4.3668 O   0  0  0  0  0  0  0  0  0  0  0  0
   -0.2417    2.0342   -6.5033 N   0  0  0  0  0  0  0  0  0  0  0  0
    0.6730    2.1906   -7.1520 N   0  0  0  0  0  0  0  0  0  0  0  0
    2.2539   -0.2259   -6.3588 S   0  0  0  0  0  0  0  0  0  0  0  0
    3.7634    0.8581   -6.3450 C   0  0  0  0  0  0  0  0  0  0  0  0
    1.5111    0.2768   -7.5991 O   0  0  0  0  0  0  0  0  0  0  0  0
    1.5244    0.1375   -5.1269 O   0  0  0  0  0  0  0  0  0  0  0  0
    2.7560   -1.5917   -6.5081 O   0  0  0  0  0  0  0  0  0  0  0  0
    4.4706    0.7015   -7.4662 F   0  0  0  0  0  0  0  0  0  0  0  0
    3.3957    2.1511   -6.2477 F   0  0  0  0  0  0  0  0  0  0  0  0
    4.5356    0.5586   -5.2964 F   0  0  0  0  0  0  0  0  0  0  0  0
  1  6  2  0  0  0  0
  2  3  2  0  0  0  0
  2  1  1  0  0  0  0
  3  4  1  0  0  0  0
  4  9  1  0  0  0  0
  4  5  2  0  0  0  0
  5 10  1  0  0  0  0
  6  5  1  0  0  0  0
  6 11  1  0  0  0  0
  7  1  1  0  0  0  0
  8  2  1  0  0  0  0
 11 12  2  0  0  0  0
 13 11  2  0  0  0  0
 14  3  1  0  0  0  0
 15 14  1  0  0  0  0
 16 17  1  0  0  0  0
 16 19  1  0  0  0  0
 17 22  1  0  0  0  0
 17 23  1  0  0  0  0
 18 16  2  0  0  0  0
 20 16  2  0  0  0  0
 21 17  1  0  0  0  0
M  RAD  3  14   2  15   3  19   2
M  END
