Coordinates from ORCA-job p-NO2-Ph-N2-X-OTf-B3LYPG-6-31G_dp-scan-d09-49-n400
 OpenBabel08281820573D

 23 22  0  0  0  0  0  0  0  0999 V2000
   -1.6678   -0.5991   -4.9877 C   0  0  0  0  0  0  0  0  0  0  0  0
   -0.6919    0.4165   -5.0075 C   0  0  0  0  0  0  0  0  0  0  0  0
   -1.2455    1.7043   -4.9874 C   0  0  0  0  0  0  0  0  0  0  0  0
   -2.6140    2.0599   -4.9488 C   0  0  0  0  0  0  0  0  0  0  0  0
   -3.5207    1.0206   -4.9306 C   0  0  0  0  0  0  0  0  0  0  0  0
   -3.0213   -0.2912   -4.9489 C   0  0  0  0  0  0  0  0  0  0  0  0
   -1.3707   -1.6422   -5.0035 H   0  0  0  0  0  0  0  0  0  0  0  0
    0.6365    0.1315   -5.0788 H   0  0  0  0  0  0  0  0  0  0  0  0
   -2.9342    3.0964   -4.9376 H   0  0  0  0  0  0  0  0  0  0  0  0
   -4.5891    1.1899   -4.9025 H   0  0  0  0  0  0  0  0  0  0  0  0
   -4.0114   -1.4008   -4.9249 N   0  0  0  0  0  0  0  0  0  0  0  0
   -5.1996   -1.0892   -4.8976 O   0  0  0  0  0  0  0  0  0  0  0  0
   -3.5744   -2.5454   -4.9339 O   0  0  0  0  0  0  0  0  0  0  0  0
   -0.3391    2.7643   -4.9949 N   0  0  0  0  0  0  0  0  0  0  0  0
    0.4192    3.5784   -5.0071 N   0  0  0  0  0  0  0  0  0  0  0  0
    2.6906    0.7355   -5.9294 S   0  0  0  0  0  0  0  0  0  0  0  0
    3.0007   -0.2864   -7.4492 C   0  0  0  0  0  0  0  0  0  0  0  0
    1.9439    1.9157   -6.4119 O   0  0  0  0  0  0  0  0  0  0  0  0
    3.9881    0.9336   -5.2951 O   0  0  0  0  0  0  0  0  0  0  0  0
    1.7614   -0.1895   -5.1247 O   0  0  0  0  0  0  0  0  0  0  0  0
    1.8358   -0.5802   -8.0451 F   0  0  0  0  0  0  0  0  0  0  0  0
    3.7621    0.4018   -8.3047 F   0  0  0  0  0  0  0  0  0  0  0  0
    3.6206   -1.4235   -7.1268 F   0  0  0  0  0  0  0  0  0  0  0  0
  1  6  1  0  0  0  0
  2  1  2  0  0  0  0
  2  3  1  0  0  0  0
  3  4  2  0  0  0  0
  4  9  1  0  0  0  0
  4  5  1  0  0  0  0
  5 10  1  0  0  0  0
  6  5  2  0  0  0  0
  6 11  1  0  0  0  0
  7  1  1  0  0  0  0
 11 12  2  0  0  0  0
 13 11  2  0  0  0  0
 14  3  1  0  0  0  0
 15 14  1  0  0  0  0
 16 19  2  0  0  0  0
 16 20  1  0  0  0  0
 17 23  1  0  0  0  0
 17 16  1  0  0  0  0
 18 16  2  0  0  0  0
 20  8  1  0  0  0  0
 21 17  1  0  0  0  0
 22 17  1  0  0  0  0
M  RAD  3   2   2  14   2  15   3
M  END
