Coordinates from ORCA-job p-NO2-Ph-N2-X-OTf-B3LYPG-6-31G_dp-scan-d09-49-n400
 OpenBabel08281820583D

 23 22  0  0  0  0  0  0  0  0999 V2000
   -2.6732   -0.6727   -5.7810 C   0  0  0  0  0  0  0  0  0  0  0  0
   -1.6814   -0.0040   -6.4858 C   0  0  0  0  0  0  0  0  0  0  0  0
   -1.2321    1.2206   -5.9710 C   0  0  0  0  0  0  0  0  0  0  0  0
   -1.7342    1.8035   -4.8028 C   0  0  0  0  0  0  0  0  0  0  0  0
   -2.7116    1.1115   -4.0994 C   0  0  0  0  0  0  0  0  0  0  0  0
   -3.1640   -0.1064   -4.6047 C   0  0  0  0  0  0  0  0  0  0  0  0
   -3.0608   -1.6247   -6.1194 H   0  0  0  0  0  0  0  0  0  0  0  0
   -1.2551   -0.4059   -7.3960 H   0  0  0  0  0  0  0  0  0  0  0  0
   -1.3514    2.7543   -4.4529 H   0  0  0  0  0  0  0  0  0  0  0  0
   -3.1292    1.4973   -3.1788 H   0  0  0  0  0  0  0  0  0  0  0  0
   -4.2214   -0.8287   -3.8607 N   0  0  0  0  0  0  0  0  0  0  0  0
   -4.6305   -0.3101   -2.8263 O   0  0  0  0  0  0  0  0  0  0  0  0
   -4.6145   -1.8892   -4.3358 O   0  0  0  0  0  0  0  0  0  0  0  0
   -0.2656    1.9136   -6.6968 N   0  0  0  0  0  0  0  0  0  0  0  0
    0.6220    2.1039   -7.3670 N   0  0  0  0  0  0  0  0  0  0  0  0
    2.2571   -0.2076   -6.3237 S   0  0  0  0  0  0  0  0  0  0  0  0
    3.7020    0.9535   -6.2005 C   0  0  0  0  0  0  0  0  0  0  0  0
    1.6316    0.1993   -7.6518 O   0  0  0  0  0  0  0  0  0  0  0  0
    1.3888    0.1788   -5.1890 O   0  0  0  0  0  0  0  0  0  0  0  0
    2.8362   -1.5508   -6.3360 O   0  0  0  0  0  0  0  0  0  0  0  0
    4.5433    0.7805   -7.2225 F   0  0  0  0  0  0  0  0  0  0  0  0
    3.2619    2.2292   -6.2212 F   0  0  0  0  0  0  0  0  0  0  0  0
    4.3616    0.7551   -5.0551 F   0  0  0  0  0  0  0  0  0  0  0  0
  1  6  2  0  0  0  0
  2  3  2  0  0  0  0
  2  1  1  0  0  0  0
  3  4  1  0  0  0  0
  4  9  1  0  0  0  0
  4  5  2  0  0  0  0
  5 10  1  0  0  0  0
  6  5  1  0  0  0  0
  6 11  1  0  0  0  0
  7  1  1  0  0  0  0
  8  2  1  0  0  0  0
 11 12  2  0  0  0  0
 13 11  2  0  0  0  0
 14  3  1  0  0  0  0
 15 14  1  0  0  0  0
 16 17  1  0  0  0  0
 16 19  1  0  0  0  0
 17 23  1  0  0  0  0
 18 16  2  0  0  0  0
 20 16  2  0  0  0  0
 21 17  1  0  0  0  0
 22 17  1  0  0  0  0
M  RAD  3  14   2  15   3  19   2
M  END
