Coordinates from ORCA-job p-NO2-Ph-N2-X-OTf-B3LYPG-6-31G_dp-scan-d09-49-n400
 OpenBabel08281820583D

 23 22  0  0  0  0  0  0  0  0999 V2000
   -2.5205   -0.8187   -5.4073 C   0  0  0  0  0  0  0  0  0  0  0  0
   -1.5298   -0.3240   -6.2479 C   0  0  0  0  0  0  0  0  0  0  0  0
   -1.1414    1.0091   -6.0759 C   0  0  0  0  0  0  0  0  0  0  0  0
   -1.6813    1.8562   -5.0950 C   0  0  0  0  0  0  0  0  0  0  0  0
   -2.6527    1.3372   -4.2498 C   0  0  0  0  0  0  0  0  0  0  0  0
   -3.0570    0.0151   -4.4285 C   0  0  0  0  0  0  0  0  0  0  0  0
   -2.8693   -1.8400   -5.4906 H   0  0  0  0  0  0  0  0  0  0  0  0
   -1.0443   -0.9363   -6.9951 H   0  0  0  0  0  0  0  0  0  0  0  0
   -1.3380    2.8795   -4.9983 H   0  0  0  0  0  0  0  0  0  0  0  0
   -3.1024    1.9352   -3.4675 H   0  0  0  0  0  0  0  0  0  0  0  0
   -4.1065   -0.5260   -3.5326 N   0  0  0  0  0  0  0  0  0  0  0  0
   -4.5511    0.2298   -2.6739 O   0  0  0  0  0  0  0  0  0  0  0  0
   -4.4552   -1.6869   -3.7176 O   0  0  0  0  0  0  0  0  0  0  0  0
   -0.1956    1.5742   -6.9353 N   0  0  0  0  0  0  0  0  0  0  0  0
    0.3838    2.2865   -7.5792 N   0  0  0  0  0  0  0  0  0  0  0  0
    2.5416    0.0229   -7.2750 S   0  0  0  0  0  0  0  0  0  0  0  0
    3.1622    0.6430   -5.6382 C   0  0  0  0  0  0  0  0  0  0  0  0
    2.4519    1.2681   -8.0932 O   0  0  0  0  0  0  0  0  0  0  0  0
    1.1775   -0.4793   -6.9074 O   0  0  0  0  0  0  0  0  0  0  0  0
    3.5088   -0.9807   -7.7110 O   0  0  0  0  0  0  0  0  0  0  0  0
    4.3456    1.2467   -5.7636 F   0  0  0  0  0  0  0  0  0  0  0  0
    2.2789    1.5448   -5.1391 F   0  0  0  0  0  0  0  0  0  0  0  0
    3.2743   -0.3553   -4.7562 F   0  0  0  0  0  0  0  0  0  0  0  0
  1  6  2  0  0  0  0
  2  3  2  0  0  0  0
  2  1  1  0  0  0  0
  3  4  1  0  0  0  0
  4  9  1  0  0  0  0
  4  5  2  0  0  0  0
  5 10  1  0  0  0  0
  6  5  1  0  0  0  0
  6 11  1  0  0  0  0
  7  1  1  0  0  0  0
  8  2  1  0  0  0  0
 11 12  2  0  0  0  0
 13 11  2  0  0  0  0
 14  3  1  0  0  0  0
 15 14  1  0  0  0  0
 16 19  1  0  0  0  0
 16 17  1  0  0  0  0
 17 22  1  0  0  0  0
 17 23  1  0  0  0  0
 18 16  2  0  0  0  0
 20 16  2  0  0  0  0
 21 17  1  0  0  0  0
M  RAD  3  14   2  15   3  19   2
M  END
