Coordinates from ORCA-job p-NO2-Ph-N2-X-OTf-B3LYPG-6-31G_dp-scan-d09-49-n400
 OpenBabel08281820583D

 23 22  0  0  0  0  0  0  0  0999 V2000
   -2.5841   -0.7714   -5.5593 C   0  0  0  0  0  0  0  0  0  0  0  0
   -1.6730   -0.2789   -6.4838 C   0  0  0  0  0  0  0  0  0  0  0  0
   -1.1330    0.9913   -6.2474 C   0  0  0  0  0  0  0  0  0  0  0  0
   -1.4369    1.7710   -5.1227 C   0  0  0  0  0  0  0  0  0  0  0  0
   -2.3361    1.2522   -4.1997 C   0  0  0  0  0  0  0  0  0  0  0  0
   -2.8974   -0.0001   -4.4404 C   0  0  0  0  0  0  0  0  0  0  0  0
   -3.0395   -1.7455   -5.6821 H   0  0  0  0  0  0  0  0  0  0  0  0
   -1.3555   -0.8544   -7.3428 H   0  0  0  0  0  0  0  0  0  0  0  0
   -0.9692    2.7368   -4.9764 H   0  0  0  0  0  0  0  0  0  0  0  0
   -2.6081    1.7998   -3.3064 H   0  0  0  0  0  0  0  0  0  0  0  0
   -3.8670   -0.5381   -3.4590 N   0  0  0  0  0  0  0  0  0  0  0  0
   -4.1169    0.1586   -2.4800 O   0  0  0  0  0  0  0  0  0  0  0  0
   -4.3525   -1.6388   -3.6989 O   0  0  0  0  0  0  0  0  0  0  0  0
   -0.2669    1.5458   -7.1859 N   0  0  0  0  0  0  0  0  0  0  0  0
    0.3196    2.1534   -7.9207 N   0  0  0  0  0  0  0  0  0  0  0  0
    2.4910    0.0016   -7.1339 S   0  0  0  0  0  0  0  0  0  0  0  0
    2.8433    0.7549   -5.4720 C   0  0  0  0  0  0  0  0  0  0  0  0
    2.4917    1.1915   -8.0366 O   0  0  0  0  0  0  0  0  0  0  0  0
    1.1048   -0.5257   -6.9333 O   0  0  0  0  0  0  0  0  0  0  0  0
    3.5427   -0.9882   -7.3512 O   0  0  0  0  0  0  0  0  0  0  0  0
    4.0168    1.3877   -5.4566 F   0  0  0  0  0  0  0  0  0  0  0  0
    1.8722    1.6662   -5.1831 F   0  0  0  0  0  0  0  0  0  0  0  0
    2.8334   -0.1684   -4.5060 F   0  0  0  0  0  0  0  0  0  0  0  0
  1  6  2  0  0  0  0
  2  3  2  0  0  0  0
  2  1  1  0  0  0  0
  3  4  1  0  0  0  0
  4  9  1  0  0  0  0
  4  5  2  0  0  0  0
  5 10  1  0  0  0  0
  6  5  1  0  0  0  0
  6 11  1  0  0  0  0
  7  1  1  0  0  0  0
  8  2  1  0  0  0  0
 11 12  2  0  0  0  0
 13 11  2  0  0  0  0
 14  3  1  0  0  0  0
 15 14  1  0  0  0  0
 16 19  1  0  0  0  0
 16 17  1  0  0  0  0
 17 21  1  0  0  0  0
 17 22  1  0  0  0  0
 17 23  1  0  0  0  0
 18 16  2  0  0  0  0
 20 16  2  0  0  0  0
M  RAD  3  14   2  15   3  19   2
M  END
