Coordinates from ORCA-job p-NO2-Ph-N2-X-OTf-B3LYPG-6-31G_dp-scan-d09-49-n400
 OpenBabel08281820583D

 23 22  0  0  0  0  0  0  0  0999 V2000
   -2.4731   -0.7077   -5.6347 C   0  0  0  0  0  0  0  0  0  0  0  0
   -1.4571    0.0126   -6.2498 C   0  0  0  0  0  0  0  0  0  0  0  0
   -1.2319    1.3241   -5.8065 C   0  0  0  0  0  0  0  0  0  0  0  0
   -1.9721    1.9382   -4.7906 C   0  0  0  0  0  0  0  0  0  0  0  0
   -2.9716    1.1978   -4.1716 C   0  0  0  0  0  0  0  0  0  0  0  0
   -3.2028   -0.1047   -4.6106 C   0  0  0  0  0  0  0  0  0  0  0  0
   -2.6990   -1.7250   -5.9267 H   0  0  0  0  0  0  0  0  0  0  0  0
   -0.8434   -0.4037   -7.0392 H   0  0  0  0  0  0  0  0  0  0  0  0
   -1.7559    2.9571   -4.4926 H   0  0  0  0  0  0  0  0  0  0  0  0
   -3.5721    1.6081   -3.3700 H   0  0  0  0  0  0  0  0  0  0  0  0
   -4.2836   -0.8842   -3.9593 N   0  0  0  0  0  0  0  0  0  0  0  0
   -4.9014   -0.3338   -3.0532 O   0  0  0  0  0  0  0  0  0  0  0  0
   -4.4830   -2.0196   -4.3776 O   0  0  0  0  0  0  0  0  0  0  0  0
   -0.2394    2.0761   -6.4399 N   0  0  0  0  0  0  0  0  0  0  0  0
    0.6842    2.2295   -7.0783 N   0  0  0  0  0  0  0  0  0  0  0  0
    2.2465   -0.2172   -6.3637 S   0  0  0  0  0  0  0  0  0  0  0  0
    3.7887    0.8190   -6.3946 C   0  0  0  0  0  0  0  0  0  0  0  0
    1.4783    0.3201   -7.5757 O   0  0  0  0  0  0  0  0  0  0  0  0
    1.5696    0.1560   -5.1060 O   0  0  0  0  0  0  0  0  0  0  0  0
    2.6953   -1.5974   -6.5452 O   0  0  0  0  0  0  0  0  0  0  0  0
    4.4560    0.6417   -7.5372 F   0  0  0  0  0  0  0  0  0  0  0  0
    3.4645    2.1217   -6.2849 F   0  0  0  0  0  0  0  0  0  0  0  0
    4.5824    0.4923   -5.3704 F   0  0  0  0  0  0  0  0  0  0  0  0
  1  6  2  0  0  0  0
  2  3  2  0  0  0  0
  2  1  1  0  0  0  0
  3  4  1  0  0  0  0
  4  9  1  0  0  0  0
  4  5  2  0  0  0  0
  5 10  1  0  0  0  0
  6  5  1  0  0  0  0
  6 11  1  0  0  0  0
  7  1  1  0  0  0  0
  8  2  1  0  0  0  0
 11 12  2  0  0  0  0
 13 11  2  0  0  0  0
 14  3  1  0  0  0  0
 15 14  1  0  0  0  0
 16 19  1  0  0  0  0
 17 16  1  0  0  0  0
 17 22  1  0  0  0  0
 17 23  1  0  0  0  0
 18 16  2  0  0  0  0
 20 16  2  0  0  0  0
 21 17  1  0  0  0  0
M  RAD  3  14   2  15   3  19   2
M  END
