Coordinates from ORCA-job p-NO2-Ph-N2-X-OTf-B3LYPG-6-31G_dp-scan-d09-49-n400
 OpenBabel08281820573D

 23 22  0  0  0  0  0  0  0  0999 V2000
   -2.2280   -0.7116   -5.5045 C   0  0  0  0  0  0  0  0  0  0  0  0
   -1.2633    0.1342   -6.0408 C   0  0  0  0  0  0  0  0  0  0  0  0
   -1.3187    1.4894   -5.6776 C   0  0  0  0  0  0  0  0  0  0  0  0
   -2.2850    2.0216   -4.8145 C   0  0  0  0  0  0  0  0  0  0  0  0
   -3.2354    1.1612   -4.2813 C   0  0  0  0  0  0  0  0  0  0  0  0
   -3.1872   -0.1849   -4.6416 C   0  0  0  0  0  0  0  0  0  0  0  0
   -2.2381   -1.7681   -5.7413 H   0  0  0  0  0  0  0  0  0  0  0  0
   -0.4865   -0.2316   -6.7027 H   0  0  0  0  0  0  0  0  0  0  0  0
   -2.2765    3.0770   -4.5681 H   0  0  0  0  0  0  0  0  0  0  0  0
   -4.0043    1.5077   -3.6027 H   0  0  0  0  0  0  0  0  0  0  0  0
   -4.2110   -1.0989   -4.0772 N   0  0  0  0  0  0  0  0  0  0  0  0
   -5.0320   -0.6094   -3.3076 O   0  0  0  0  0  0  0  0  0  0  0  0
   -4.1636   -2.2738   -4.4238 O   0  0  0  0  0  0  0  0  0  0  0  0
   -0.3722    2.3762   -6.2016 N   0  0  0  0  0  0  0  0  0  0  0  0
    0.5750    2.6546   -6.7594 N   0  0  0  0  0  0  0  0  0  0  0  0
    2.1537    0.1522   -6.2649 S   0  0  0  0  0  0  0  0  0  0  0  0
    3.9562    0.3983   -6.6402 C   0  0  0  0  0  0  0  0  0  0  0  0
    1.4709    0.8758   -7.4293 O   0  0  0  0  0  0  0  0  0  0  0  0
    1.9113    0.8424   -4.9849 O   0  0  0  0  0  0  0  0  0  0  0  0
    1.9162   -1.2949   -6.3255 O   0  0  0  0  0  0  0  0  0  0  0  0
    4.2650   -0.1586   -7.8145 F   0  0  0  0  0  0  0  0  0  0  0  0
    4.2348    1.7071   -6.6930 F   0  0  0  0  0  0  0  0  0  0  0  0
    4.6978   -0.1649   -5.6813 F   0  0  0  0  0  0  0  0  0  0  0  0
  1  6  2  0  0  0  0
  2  3  2  0  0  0  0
  2  1  1  0  0  0  0
  3  4  1  0  0  0  0
  4  9  1  0  0  0  0
  4  5  2  0  0  0  0
  5 10  1  0  0  0  0
  6  5  1  0  0  0  0
  6 11  1  0  0  0  0
  7  1  1  0  0  0  0
  8  2  1  0  0  0  0
 11 12  2  0  0  0  0
 13 11  2  0  0  0  0
 14  3  1  0  0  0  0
 15 14  2  0  0  0  0
 16 19  1  0  0  0  0
 17 16  1  0  0  0  0
 17 23  1  0  0  0  0
 18 16  2  0  0  0  0
 20 16  2  0  0  0  0
 21 17  1  0  0  0  0
 22 17  1  0  0  0  0
M  RAD  2  15   2  19   2
M  END
