Coordinates from ORCA-job p-NO2-Ph-N2-X-OTf-B3LYPG-6-31G_dp-scan-d09-49-n400
 OpenBabel08281820583D

 23 22  0  0  0  0  0  0  0  0999 V2000
   -2.6770   -0.6720   -5.7831 C   0  0  0  0  0  0  0  0  0  0  0  0
   -1.6858   -0.0044   -6.4898 C   0  0  0  0  0  0  0  0  0  0  0  0
   -1.2321    1.2182   -5.9744 C   0  0  0  0  0  0  0  0  0  0  0  0
   -1.7293    1.8004   -4.8036 C   0  0  0  0  0  0  0  0  0  0  0  0
   -2.7063    1.1095   -4.0986 C   0  0  0  0  0  0  0  0  0  0  0  0
   -3.1631   -0.1065   -4.6045 C   0  0  0  0  0  0  0  0  0  0  0  0
   -3.0677   -1.6226   -6.1219 H   0  0  0  0  0  0  0  0  0  0  0  0
   -1.2631   -0.4059   -7.4019 H   0  0  0  0  0  0  0  0  0  0  0  0
   -1.3431    2.7496   -4.4531 H   0  0  0  0  0  0  0  0  0  0  0  0
   -3.1202    1.4947   -3.1761 H   0  0  0  0  0  0  0  0  0  0  0  0
   -4.2199   -0.8276   -3.8586 N   0  0  0  0  0  0  0  0  0  0  0  0
   -4.6250   -0.3095   -2.8223 O   0  0  0  0  0  0  0  0  0  0  0  0
   -4.6163   -1.8868   -4.3339 O   0  0  0  0  0  0  0  0  0  0  0  0
   -0.2664    1.9099   -6.7021 N   0  0  0  0  0  0  0  0  0  0  0  0
    0.6200    2.1028   -7.3729 N   0  0  0  0  0  0  0  0  0  0  0  0
    2.2570   -0.2067   -6.3240 S   0  0  0  0  0  0  0  0  0  0  0  0
    3.7003    0.9557   -6.1961 C   0  0  0  0  0  0  0  0  0  0  0  0
    1.6362    0.1987   -7.6544 O   0  0  0  0  0  0  0  0  0  0  0  0
    1.3842    0.1801   -5.1926 O   0  0  0  0  0  0  0  0  0  0  0  0
    2.8368   -1.5495   -6.3325 O   0  0  0  0  0  0  0  0  0  0  0  0
    4.5456    0.7830   -7.2148 F   0  0  0  0  0  0  0  0  0  0  0  0
    3.2588    2.2310   -6.2192 F   0  0  0  0  0  0  0  0  0  0  0  0
    4.3559    0.7589   -5.0481 F   0  0  0  0  0  0  0  0  0  0  0  0
  1  6  2  0  0  0  0
  2  3  2  0  0  0  0
  2  1  1  0  0  0  0
  3  4  1  0  0  0  0
  4  9  1  0  0  0  0
  4  5  2  0  0  0  0
  5 10  1  0  0  0  0
  6  5  1  0  0  0  0
  6 11  1  0  0  0  0
  7  1  1  0  0  0  0
  8  2  1  0  0  0  0
 11 12  2  0  0  0  0
 13 11  2  0  0  0  0
 14  3  1  0  0  0  0
 15 14  1  0  0  0  0
 16 17  1  0  0  0  0
 16 19  1  0  0  0  0
 17 23  1  0  0  0  0
 18 16  2  0  0  0  0
 20 16  2  0  0  0  0
 21 17  1  0  0  0  0
 22 17  1  0  0  0  0
M  RAD  3  14   2  15   3  19   2
M  END
