Coordinates from ORCA-job p-NO2-Ph-N2-X-OTf-B3LYPG-6-31G_dp-scan-d09-49-n400
 OpenBabel08281820583D

 23 22  0  0  0  0  0  0  0  0999 V2000
   -2.4623   -0.7089   -5.6261 C   0  0  0  0  0  0  0  0  0  0  0  0
   -1.4454    0.0153   -6.2352 C   0  0  0  0  0  0  0  0  0  0  0  0
   -1.2333    1.3305   -5.7962 C   0  0  0  0  0  0  0  0  0  0  0  0
   -1.9869    1.9441   -4.7899 C   0  0  0  0  0  0  0  0  0  0  0  0
   -2.9874    1.2001   -4.1768 C   0  0  0  0  0  0  0  0  0  0  0  0
   -3.2057   -0.1060   -4.6118 C   0  0  0  0  0  0  0  0  0  0  0  0
   -2.6787   -1.7290   -5.9154 H   0  0  0  0  0  0  0  0  0  0  0  0
   -0.8214   -0.4002   -7.0170 H   0  0  0  0  0  0  0  0  0  0  0  0
   -1.7802    2.9658   -4.4947 H   0  0  0  0  0  0  0  0  0  0  0  0
   -3.5982    1.6101   -3.3828 H   0  0  0  0  0  0  0  0  0  0  0  0
   -4.2871   -0.8897   -3.9667 N   0  0  0  0  0  0  0  0  0  0  0  0
   -4.9165   -0.3396   -3.0684 O   0  0  0  0  0  0  0  0  0  0  0  0
   -4.4756   -2.0282   -4.3819 O   0  0  0  0  0  0  0  0  0  0  0  0
   -0.2394    2.0869   -6.4228 N   0  0  0  0  0  0  0  0  0  0  0  0
    0.6869    2.2396   -7.0579 N   0  0  0  0  0  0  0  0  0  0  0  0
    2.2453   -0.2122   -6.3619 S   0  0  0  0  0  0  0  0  0  0  0  0
    3.7973    0.8084   -6.4096 C   0  0  0  0  0  0  0  0  0  0  0  0
    1.4702    0.3322   -7.5668 O   0  0  0  0  0  0  0  0  0  0  0  0
    1.5846    0.1677   -5.0979 O   0  0  0  0  0  0  0  0  0  0  0  0
    2.6770   -1.5973   -6.5485 O   0  0  0  0  0  0  0  0  0  0  0  0
    4.4530    0.6201   -7.5571 F   0  0  0  0  0  0  0  0  0  0  0  0
    3.4869    2.1143   -6.3019 F   0  0  0  0  0  0  0  0  0  0  0  0
    4.5963    0.4771   -5.3910 F   0  0  0  0  0  0  0  0  0  0  0  0
  1  6  2  0  0  0  0
  2  3  2  0  0  0  0
  2  1  1  0  0  0  0
  3  4  1  0  0  0  0
  4  9  1  0  0  0  0
  4  5  2  0  0  0  0
  5 10  1  0  0  0  0
  6  5  1  0  0  0  0
  6 11  1  0  0  0  0
  7  1  1  0  0  0  0
  8  2  1  0  0  0  0
 11 12  2  0  0  0  0
 13 11  2  0  0  0  0
 14  3  1  0  0  0  0
 15 14  2  0  0  0  0
 16 19  1  0  0  0  0
 17 16  1  0  0  0  0
 17 22  1  0  0  0  0
 17 23  1  0  0  0  0
 18 16  2  0  0  0  0
 20 16  2  0  0  0  0
 21 17  1  0  0  0  0
M  RAD  2  15   2  19   2
M  END
