Coordinates from ORCA-job p-NO2-Ph-N2-X-OTf-B3LYPG-6-31G_dp-scan-d09-49-n400
 OpenBabel08281820573D

 23 22  0  0  0  0  0  0  0  0999 V2000
   -2.1685   -0.7397   -5.2649 C   0  0  0  0  0  0  0  0  0  0  0  0
   -1.1394    0.1158   -5.6478 C   0  0  0  0  0  0  0  0  0  0  0  0
   -1.3291    1.4891   -5.4246 C   0  0  0  0  0  0  0  0  0  0  0  0
   -2.4854    2.0273   -4.8422 C   0  0  0  0  0  0  0  0  0  0  0  0
   -3.5038    1.1591   -4.4738 C   0  0  0  0  0  0  0  0  0  0  0  0
   -3.3218   -0.2059   -4.6938 C   0  0  0  0  0  0  0  0  0  0  0  0
   -2.0820   -1.8102   -5.4050 H   0  0  0  0  0  0  0  0  0  0  0  0
   -0.2237   -0.2639   -6.0887 H   0  0  0  0  0  0  0  0  0  0  0  0
   -2.5716    3.0967   -4.6870 H   0  0  0  0  0  0  0  0  0  0  0  0
   -4.4215    1.5130   -4.0225 H   0  0  0  0  0  0  0  0  0  0  0  0
   -4.4110   -1.1321   -4.2967 N   0  0  0  0  0  0  0  0  0  0  0  0
   -5.4118   -0.6317   -3.7917 O   0  0  0  0  0  0  0  0  0  0  0  0
   -4.2327   -2.3268   -4.5036 O   0  0  0  0  0  0  0  0  0  0  0  0
   -0.3205    2.3940   -5.7791 N   0  0  0  0  0  0  0  0  0  0  0  0
    0.6712    2.7066   -6.2329 N   0  0  0  0  0  0  0  0  0  0  0  0
    2.3991    0.3211   -6.1500 S   0  0  0  0  0  0  0  0  0  0  0  0
    4.0316    0.2858   -7.0372 C   0  0  0  0  0  0  0  0  0  0  0  0
    1.4898    1.0178   -7.1643 O   0  0  0  0  0  0  0  0  0  0  0  0
    2.6014    1.1397   -4.9430 O   0  0  0  0  0  0  0  0  0  0  0  0
    2.0103   -1.0870   -5.9713 O   0  0  0  0  0  0  0  0  0  0  0  0
    3.9188   -0.3927   -8.1830 F   0  0  0  0  0  0  0  0  0  0  0  0
    4.4321    1.5332   -7.3083 F   0  0  0  0  0  0  0  0  0  0  0  0
    4.9479   -0.3083   -6.2664 F   0  0  0  0  0  0  0  0  0  0  0  0
  1  6  2  0  0  0  0
  2  3  2  0  0  0  0
  2  1  1  0  0  0  0
  3  4  1  0  0  0  0
  4  9  1  0  0  0  0
  4  5  2  0  0  0  0
  5 10  1  0  0  0  0
  6  5  1  0  0  0  0
  6 11  1  0  0  0  0
  7  1  1  0  0  0  0
  8  2  1  0  0  0  0
 11 12  2  0  0  0  0
 13 11  2  0  0  0  0
 14  3  1  0  0  0  0
 15 14  1  0  0  0  0
 16 20  2  0  0  0  0
 16 19  1  0  0  0  0
 17 23  1  0  0  0  0
 17 16  1  0  0  0  0
 18 16  2  0  0  0  0
 21 17  1  0  0  0  0
 22 17  1  0  0  0  0
M  RAD  3  14   2  15   3  19   2
M  END
