Coordinates from ORCA-job p-NO2-Ph-N2-X-OTf-B3LYPG-6-31G_dp-scan-d09-49-n400
 OpenBabel08281820573D

 23 22  0  0  0  0  0  0  0  0999 V2000
   -2.2447   -0.7117   -5.5131 C   0  0  0  0  0  0  0  0  0  0  0  0
   -1.2750    0.1260   -6.0528 C   0  0  0  0  0  0  0  0  0  0  0  0
   -1.3123    1.4800   -5.6834 C   0  0  0  0  0  0  0  0  0  0  0  0
   -2.2658    2.0188   -4.8106 C   0  0  0  0  0  0  0  0  0  0  0  0
   -3.2211    1.1664   -4.2731 C   0  0  0  0  0  0  0  0  0  0  0  0
   -3.1908   -0.1785   -4.6397 C   0  0  0  0  0  0  0  0  0  0  0  0
   -2.2690   -1.7669   -5.7547 H   0  0  0  0  0  0  0  0  0  0  0  0
   -0.5076   -0.2426   -6.7241 H   0  0  0  0  0  0  0  0  0  0  0  0
   -2.2439    3.0730   -4.5599 H   0  0  0  0  0  0  0  0  0  0  0  0
   -3.9806    1.5182   -3.5867 H   0  0  0  0  0  0  0  0  0  0  0  0
   -4.2199   -1.0837   -4.0712 N   0  0  0  0  0  0  0  0  0  0  0  0
   -5.0302   -0.5886   -3.2937 O   0  0  0  0  0  0  0  0  0  0  0  0
   -4.1874   -2.2577   -4.4224 O   0  0  0  0  0  0  0  0  0  0  0  0
   -0.3608    2.3585   -6.2126 N   0  0  0  0  0  0  0  0  0  0  0  0
    0.5877    2.6207   -6.7768 N   0  0  0  0  0  0  0  0  0  0  0  0
    2.1570    0.1178   -6.2693 S   0  0  0  0  0  0  0  0  0  0  0  0
    3.9522    0.4317   -6.6282 C   0  0  0  0  0  0  0  0  0  0  0  0
    1.4592    0.8295   -7.4335 O   0  0  0  0  0  0  0  0  0  0  0  0
    1.8820    0.7897   -4.9863 O   0  0  0  0  0  0  0  0  0  0  0  0
    1.9704   -1.3352   -6.3455 O   0  0  0  0  0  0  0  0  0  0  0  0
    4.2894   -0.1000   -7.8063 F   0  0  0  0  0  0  0  0  0  0  0  0
    4.1836    1.7506   -6.6644 F   0  0  0  0  0  0  0  0  0  0  0  0
    4.7070   -0.1148   -5.6701 F   0  0  0  0  0  0  0  0  0  0  0  0
  1  6  2  0  0  0  0
  2  3  2  0  0  0  0
  2  1  1  0  0  0  0
  3  4  1  0  0  0  0
  4  9  1  0  0  0  0
  4  5  2  0  0  0  0
  5 10  1  0  0  0  0
  6  5  1  0  0  0  0
  6 11  1  0  0  0  0
  7  1  1  0  0  0  0
  8  2  1  0  0  0  0
 11 12  2  0  0  0  0
 13 11  2  0  0  0  0
 14  3  1  0  0  0  0
 15 14  2  0  0  0  0
 16 19  1  0  0  0  0
 17 16  1  0  0  0  0
 17 23  1  0  0  0  0
 18 16  2  0  0  0  0
 20 16  2  0  0  0  0
 21 17  1  0  0  0  0
 22 17  1  0  0  0  0
M  RAD  2  15   2  19   2
M  END
