Coordinates from ORCA-job p-NO2-Ph-N2-X-OTf-B3LYPG-6-31G_dp-scan-d09-49-n400
 OpenBabel08281820583D

 23 22  0  0  0  0  0  0  0  0999 V2000
   -2.6342   -0.6803   -5.7577 C   0  0  0  0  0  0  0  0  0  0  0  0
   -1.6374   -0.0013   -6.4456 C   0  0  0  0  0  0  0  0  0  0  0  0
   -1.2311    1.2422   -5.9403 C   0  0  0  0  0  0  0  0  0  0  0  0
   -1.7802    1.8332   -4.7976 C   0  0  0  0  0  0  0  0  0  0  0  0
   -2.7614    1.1310   -4.1093 C   0  0  0  0  0  0  0  0  0  0  0  0
   -3.1709   -0.1054   -4.6058 C   0  0  0  0  0  0  0  0  0  0  0  0
   -2.9908   -1.6464   -6.0905 H   0  0  0  0  0  0  0  0  0  0  0  0
   -1.1754   -0.4071   -7.3364 H   0  0  0  0  0  0  0  0  0  0  0  0
   -1.4308    2.7996   -4.4554 H   0  0  0  0  0  0  0  0  0  0  0  0
   -3.2144    1.5226   -3.2082 H   0  0  0  0  0  0  0  0  0  0  0  0
   -4.2329   -0.8393   -3.8789 N   0  0  0  0  0  0  0  0  0  0  0  0
   -4.6807   -0.3142   -2.8641 O   0  0  0  0  0  0  0  0  0  0  0  0
   -4.5909   -1.9145   -4.3484 O   0  0  0  0  0  0  0  0  0  0  0  0
   -0.2593    1.9475   -6.6490 N   0  0  0  0  0  0  0  0  0  0  0  0
    0.6369    2.1231   -7.3138 N   0  0  0  0  0  0  0  0  0  0  0  0
    2.2552   -0.2143   -6.3283 S   0  0  0  0  0  0  0  0  0  0  0  0
    3.7166    0.9294   -6.2379 C   0  0  0  0  0  0  0  0  0  0  0  0
    1.5940    0.2133   -7.6355 O   0  0  0  0  0  0  0  0  0  0  0  0
    1.4237    0.1681   -5.1664 O   0  0  0  0  0  0  0  0  0  0  0  0
    2.8195   -1.5632   -6.3756 O   0  0  0  0  0  0  0  0  0  0  0  0
    4.5253    0.7555   -7.2856 F   0  0  0  0  0  0  0  0  0  0  0  0
    3.2922    2.2101   -6.2338 F   0  0  0  0  0  0  0  0  0  0  0  0
    4.4063    0.7114   -5.1141 F   0  0  0  0  0  0  0  0  0  0  0  0
  1  6  2  0  0  0  0
  2  3  2  0  0  0  0
  2  1  1  0  0  0  0
  3  4  1  0  0  0  0
  4  9  1  0  0  0  0
  4  5  2  0  0  0  0
  5 10  1  0  0  0  0
  6  5  1  0  0  0  0
  6 11  1  0  0  0  0
  7  1  1  0  0  0  0
  8  2  1  0  0  0  0
 11 12  2  0  0  0  0
 13 11  2  0  0  0  0
 14  3  1  0  0  0  0
 15 14  1  0  0  0  0
 16 17  1  0  0  0  0
 16 19  1  0  0  0  0
 17 22  1  0  0  0  0
 17 23  1  0  0  0  0
 18 16  2  0  0  0  0
 20 16  2  0  0  0  0
 21 17  1  0  0  0  0
M  RAD  3  14   2  15   3  19   2
M  END
