Coordinates from ORCA-job p-NO2-Ph-N2-X-OTf-B3LYPG-6-31G_dp-scan-d09-49-n400
 OpenBabel08281820573D

 23 22  0  0  0  0  0  0  0  0999 V2000
   -2.1047   -0.7384   -5.1449 C   0  0  0  0  0  0  0  0  0  0  0  0
   -1.0623    0.1356   -5.4424 C   0  0  0  0  0  0  0  0  0  0  0  0
   -1.3192    1.5082   -5.2980 C   0  0  0  0  0  0  0  0  0  0  0  0
   -2.5485    2.0289   -4.8686 C   0  0  0  0  0  0  0  0  0  0  0  0
   -3.5775    1.1413   -4.5875 C   0  0  0  0  0  0  0  0  0  0  0  0
   -3.3315   -0.2240   -4.7318 C   0  0  0  0  0  0  0  0  0  0  0  0
   -1.9708   -1.8098   -5.2311 H   0  0  0  0  0  0  0  0  0  0  0  0
   -0.0898   -0.2373   -5.7561 H   0  0  0  0  0  0  0  0  0  0  0  0
   -2.6831    3.0998   -4.7663 H   0  0  0  0  0  0  0  0  0  0  0  0
   -4.5509    1.4801   -4.2579 H   0  0  0  0  0  0  0  0  0  0  0  0
   -4.4316   -1.1712   -4.4244 N   0  0  0  0  0  0  0  0  0  0  0  0
   -5.4978   -0.6869   -4.0563 O   0  0  0  0  0  0  0  0  0  0  0  0
   -4.1957   -2.3662   -4.5611 O   0  0  0  0  0  0  0  0  0  0  0  0
   -0.3032    2.4331   -5.5717 N   0  0  0  0  0  0  0  0  0  0  0  0
    0.6939    2.7874   -5.9785 N   0  0  0  0  0  0  0  0  0  0  0  0
    2.4705    0.4293   -6.1162 S   0  0  0  0  0  0  0  0  0  0  0  0
    3.9712    0.1920   -7.1876 C   0  0  0  0  0  0  0  0  0  0  0  0
    1.5208    1.1766   -7.0497 O   0  0  0  0  0  0  0  0  0  0  0  0
    2.9003    1.2516   -4.9752 O   0  0  0  0  0  0  0  0  0  0  0  0
    1.9691   -0.9289   -5.8302 O   0  0  0  0  0  0  0  0  0  0  0  0
    3.6502   -0.5012   -8.2848 F   0  0  0  0  0  0  0  0  0  0  0  0
    4.4649    1.3797   -7.5524 F   0  0  0  0  0  0  0  0  0  0  0  0
    4.9051   -0.4784   -6.5056 F   0  0  0  0  0  0  0  0  0  0  0  0
  1  6  2  0  0  0  0
  2  3  2  0  0  0  0
  2  1  1  0  0  0  0
  3  4  1  0  0  0  0
  4  9  1  0  0  0  0
  4  5  2  0  0  0  0
  5 10  1  0  0  0  0
  6  5  1  0  0  0  0
  6 11  1  0  0  0  0
  7  1  1  0  0  0  0
  8  2  1  0  0  0  0
 11 12  2  0  0  0  0
 13 11  2  0  0  0  0
 14  3  1  0  0  0  0
 15 14  1  0  0  0  0
 16 20  2  0  0  0  0
 16 19  1  0  0  0  0
 17 23  1  0  0  0  0
 17 16  1  0  0  0  0
 18 16  2  0  0  0  0
 21 17  1  0  0  0  0
 22 17  1  0  0  0  0
M  RAD  3  14   2  15   3  19   2
M  END
