Coordinates from ORCA-job p-NO2-Ph-N2-X-OTf-B3LYPG-6-31G_dp-scan-d09-49-n400
 OpenBabel08281820583D

 23 22  0  0  0  0  0  0  0  0999 V2000
   -2.5422   -0.8023   -5.4671 C   0  0  0  0  0  0  0  0  0  0  0  0
   -1.5803   -0.3104   -6.3409 C   0  0  0  0  0  0  0  0  0  0  0  0
   -1.1356    1.0017   -6.1417 C   0  0  0  0  0  0  0  0  0  0  0  0
   -1.5885    1.8278   -5.1018 C   0  0  0  0  0  0  0  0  0  0  0  0
   -2.5326    1.3100   -4.2250 C   0  0  0  0  0  0  0  0  0  0  0  0
   -2.9955    0.0115   -4.4305 C   0  0  0  0  0  0  0  0  0  0  0  0
   -2.9314   -1.8073   -5.5679 H   0  0  0  0  0  0  0  0  0  0  0  0
   -1.1583   -0.9121   -7.1340 H   0  0  0  0  0  0  0  0  0  0  0  0
   -1.1999    2.8324   -4.9845 H   0  0  0  0  0  0  0  0  0  0  0  0
   -2.9165    1.8920   -3.3970 H   0  0  0  0  0  0  0  0  0  0  0  0
   -4.0157   -0.5268   -3.5006 N   0  0  0  0  0  0  0  0  0  0  0  0
   -4.3848    0.2087   -2.5900 O   0  0  0  0  0  0  0  0  0  0  0  0
   -4.4189   -1.6656   -3.7117 O   0  0  0  0  0  0  0  0  0  0  0  0
   -0.2206    1.5632   -7.0327 N   0  0  0  0  0  0  0  0  0  0  0  0
    0.3600    2.2371   -7.7144 N   0  0  0  0  0  0  0  0  0  0  0  0
    2.5281    0.0113   -7.2290 S   0  0  0  0  0  0  0  0  0  0  0  0
    3.0324    0.6828   -5.5720 C   0  0  0  0  0  0  0  0  0  0  0  0
    2.4713    1.2368   -8.0804 O   0  0  0  0  0  0  0  0  0  0  0  0
    1.1532   -0.5051   -6.9346 O   0  0  0  0  0  0  0  0  0  0  0  0
    3.5398   -0.9824   -7.5772 O   0  0  0  0  0  0  0  0  0  0  0  0
    4.2047    1.3162   -5.6367 F   0  0  0  0  0  0  0  0  0  0  0  0
    2.0963    1.5726   -5.1481 F   0  0  0  0  0  0  0  0  0  0  0  0
    3.1141   -0.2912   -4.6603 F   0  0  0  0  0  0  0  0  0  0  0  0
  1  6  2  0  0  0  0
  2  3  2  0  0  0  0
  2  1  1  0  0  0  0
  3  4  1  0  0  0  0
  4  9  1  0  0  0  0
  4  5  2  0  0  0  0
  5 10  1  0  0  0  0
  6  5  1  0  0  0  0
  6 11  1  0  0  0  0
  7  1  1  0  0  0  0
  8  2  1  0  0  0  0
 11 12  2  0  0  0  0
 13 11  2  0  0  0  0
 14  3  1  0  0  0  0
 15 14  1  0  0  0  0
 16 19  1  0  0  0  0
 16 17  1  0  0  0  0
 17 22  1  0  0  0  0
 17 23  1  0  0  0  0
 18 16  2  0  0  0  0
 20 16  2  0  0  0  0
 21 17  1  0  0  0  0
M  RAD  3  14   2  15   3  19   2
M  END
