Coordinates from ORCA-job p-NO2-Ph-N2-X-OTf-B3LYPG-6-31G_dp-scan-d09-49-n400
 OpenBabel08281820573D

 23 22  0  0  0  0  0  0  0  0999 V2000
   -1.6407   -0.5714   -4.9633 C   0  0  0  0  0  0  0  0  0  0  0  0
   -0.6678    0.4587   -4.9591 C   0  0  0  0  0  0  0  0  0  0  0  0
   -1.2693    1.7256   -4.9761 C   0  0  0  0  0  0  0  0  0  0  0  0
   -2.6458    2.0642   -4.9951 C   0  0  0  0  0  0  0  0  0  0  0  0
   -3.5309    1.0090   -4.9989 C   0  0  0  0  0  0  0  0  0  0  0  0
   -3.0001   -0.2933   -4.9815 C   0  0  0  0  0  0  0  0  0  0  0  0
   -1.3338   -1.6124   -4.9528 H   0  0  0  0  0  0  0  0  0  0  0  0
    0.9203    0.1247   -4.9815 H   0  0  0  0  0  0  0  0  0  0  0  0
   -2.9854    3.0950   -5.0086 H   0  0  0  0  0  0  0  0  0  0  0  0
   -4.6030    1.1545   -5.0148 H   0  0  0  0  0  0  0  0  0  0  0  0
   -3.9687   -1.4221   -4.9835 N   0  0  0  0  0  0  0  0  0  0  0  0
   -5.1641   -1.1358   -5.0024 O   0  0  0  0  0  0  0  0  0  0  0  0
   -3.5120   -2.5595   -4.9658 O   0  0  0  0  0  0  0  0  0  0  0  0
   -0.3843    2.8060   -4.9653 N   0  0  0  0  0  0  0  0  0  0  0  0
    0.3532    3.6402   -4.9569 N   0  0  0  0  0  0  0  0  0  0  0  0
    2.8019    0.7394   -5.9049 S   0  0  0  0  0  0  0  0  0  0  0  0
    2.8354   -0.2985   -7.4478 C   0  0  0  0  0  0  0  0  0  0  0  0
    2.0907    1.9700   -6.2725 O   0  0  0  0  0  0  0  0  0  0  0  0
    4.1628    0.7889   -5.3992 O   0  0  0  0  0  0  0  0  0  0  0  0
    1.9027   -0.1505   -4.9776 O   0  0  0  0  0  0  0  0  0  0  0  0
    1.5830   -0.5068   -7.8728 F   0  0  0  0  0  0  0  0  0  0  0  0
    3.5183    0.3467   -8.3955 F   0  0  0  0  0  0  0  0  0  0  0  0
    3.4168   -1.4716   -7.2025 F   0  0  0  0  0  0  0  0  0  0  0  0
  1  2  1  0  0  0  0
  1  7  1  0  0  0  0
  3 14  1  0  0  0  0
  3  2  2  0  0  0  0
  4  3  1  0  0  0  0
  5  4  2  0  0  0  0
  5  6  1  0  0  0  0
  6  1  2  0  0  0  0
  8 20  1  0  0  0  0
  9  4  1  0  0  0  0
 10  5  1  0  0  0  0
 11  6  1  0  0  0  0
 11 13  2  0  0  0  0
 12 11  2  0  0  0  0
 14 15  1  0  0  0  0
 16 19  2  0  0  0  0
 16 20  1  0  0  0  0
 17 23  1  0  0  0  0
 17 16  1  0  0  0  0
 18 16  2  0  0  0  0
 21 17  1  0  0  0  0
 22 17  1  0  0  0  0
M  RAD  3   2   2  14   2  15   3
M  END
