Coordinates from ORCA-job p-NO2-Ph-N2-X-OTf-B3LYPG-6-31G_dp-scan-d09-49-n400
 OpenBabel08281820573D

 23 22  0  0  0  0  0  0  0  0999 V2000
   -2.0205   -0.7263   -5.0312 C   0  0  0  0  0  0  0  0  0  0  0  0
   -0.9776    0.1766   -5.2246 C   0  0  0  0  0  0  0  0  0  0  0  0
   -1.3011    1.5407   -5.1597 C   0  0  0  0  0  0  0  0  0  0  0  0
   -2.5899    2.0300   -4.9010 C   0  0  0  0  0  0  0  0  0  0  0  0
   -3.6148    1.1120   -4.7240 C   0  0  0  0  0  0  0  0  0  0  0  0
   -3.3060   -0.2470   -4.7921 C   0  0  0  0  0  0  0  0  0  0  0  0
   -1.8414   -1.7941   -5.0660 H   0  0  0  0  0  0  0  0  0  0  0  0
    0.0439   -0.1688   -5.4023 H   0  0  0  0  0  0  0  0  0  0  0  0
   -2.7729    3.0975   -4.8517 H   0  0  0  0  0  0  0  0  0  0  0  0
   -4.6332    1.4225   -4.5302 H   0  0  0  0  0  0  0  0  0  0  0  0
   -4.4039   -1.2255   -4.5927 N   0  0  0  0  0  0  0  0  0  0  0  0
   -5.5252   -0.7710   -4.3858 O   0  0  0  0  0  0  0  0  0  0  0  0
   -4.1111   -2.4143   -4.6496 O   0  0  0  0  0  0  0  0  0  0  0  0
   -0.2857    2.4887   -5.3399 N   0  0  0  0  0  0  0  0  0  0  0  0
    0.7148    2.8898   -5.6851 N   0  0  0  0  0  0  0  0  0  0  0  0
    2.5485    0.5551   -6.0553 S   0  0  0  0  0  0  0  0  0  0  0  0
    3.8154    0.0731   -7.3289 C   0  0  0  0  0  0  0  0  0  0  0  0
    1.5566    1.3585   -6.8885 O   0  0  0  0  0  0  0  0  0  0  0  0
    3.2523    1.3626   -5.0517 O   0  0  0  0  0  0  0  0  0  0  0  0
    1.9484   -0.7199   -5.6021 O   0  0  0  0  0  0  0  0  0  0  0  0
    3.2404   -0.6307   -8.3103 F   0  0  0  0  0  0  0  0  0  0  0  0
    4.3795    1.1663   -7.8514 F   0  0  0  0  0  0  0  0  0  0  0  0
    4.7628   -0.6747   -6.7541 F   0  0  0  0  0  0  0  0  0  0  0  0
  1  6  2  0  0  0  0
  2  3  2  0  0  0  0
  2  1  1  0  0  0  0
  3  4  1  0  0  0  0
  4  9  1  0  0  0  0
  4  5  2  0  0  0  0
  5 10  1  0  0  0  0
  6  5  1  0  0  0  0
  6 11  1  0  0  0  0
  7  1  1  0  0  0  0
  8  2  1  0  0  0  0
 11 12  2  0  0  0  0
 13 11  2  0  0  0  0
 14  3  1  0  0  0  0
 15 14  1  0  0  0  0
 16 20  2  0  0  0  0
 16 19  1  0  0  0  0
 17 23  1  0  0  0  0
 17 16  1  0  0  0  0
 18 16  2  0  0  0  0
 21 17  1  0  0  0  0
 22 17  1  0  0  0  0
M  RAD  3  14   2  15   3  19   2
M  END
