Coordinates from ORCA-job p-NO2-Ph-N2-X-OTf-B3LYPG-6-31G_dp-scan-d09-49-n400
 OpenBabel08281820573D

 23 22  0  0  0  0  0  0  0  0999 V2000
   -2.0861   -0.7363   -5.1079 C   0  0  0  0  0  0  0  0  0  0  0  0
   -1.0397    0.1443   -5.3696 C   0  0  0  0  0  0  0  0  0  0  0  0
   -1.3152    1.5158   -5.2507 C   0  0  0  0  0  0  0  0  0  0  0  0
   -2.5655    2.0297   -4.8776 C   0  0  0  0  0  0  0  0  0  0  0  0
   -3.5978    1.1352   -4.6327 C   0  0  0  0  0  0  0  0  0  0  0  0
   -3.3339   -0.2292   -4.7530 C   0  0  0  0  0  0  0  0  0  0  0  0
   -1.9396   -1.8072   -5.1781 H   0  0  0  0  0  0  0  0  0  0  0  0
   -0.0511   -0.2217   -5.6399 H   0  0  0  0  0  0  0  0  0  0  0  0
   -2.7138    3.1002   -4.7916 H   0  0  0  0  0  0  0  0  0  0  0  0
   -4.5873    1.4682   -4.3482 H   0  0  0  0  0  0  0  0  0  0  0  0
   -4.4380   -1.1833   -4.4839 N   0  0  0  0  0  0  0  0  0  0  0  0
   -5.5225   -0.7053   -4.1638 O   0  0  0  0  0  0  0  0  0  0  0  0
   -4.1842   -2.3776   -4.5912 O   0  0  0  0  0  0  0  0  0  0  0  0
   -0.2957    2.4469   -5.4918 N   0  0  0  0  0  0  0  0  0  0  0  0
    0.7079    2.8039   -5.8805 N   0  0  0  0  0  0  0  0  0  0  0  0
    2.5116    0.4616   -6.0837 S   0  0  0  0  0  0  0  0  0  0  0  0
    3.9321    0.1623   -7.2460 C   0  0  0  0  0  0  0  0  0  0  0  0
    1.5222    1.2093   -6.9759 O   0  0  0  0  0  0  0  0  0  0  0  0
    3.0338    1.2973   -4.9934 O   0  0  0  0  0  0  0  0  0  0  0  0
    1.9976   -0.8775   -5.7344 O   0  0  0  0  0  0  0  0  0  0  0  0
    3.5241   -0.5534   -8.2991 F   0  0  0  0  0  0  0  0  0  0  0  0
    4.4248    1.3279   -7.6768 F   0  0  0  0  0  0  0  0  0  0  0  0
    4.8956   -0.5102   -6.6084 F   0  0  0  0  0  0  0  0  0  0  0  0
  1  6  2  0  0  0  0
  2  3  2  0  0  0  0
  2  1  1  0  0  0  0
  3  4  1  0  0  0  0
  4  9  1  0  0  0  0
  4  5  2  0  0  0  0
  5 10  1  0  0  0  0
  6  5  1  0  0  0  0
  6 11  1  0  0  0  0
  7  1  1  0  0  0  0
  8  2  1  0  0  0  0
 11 12  2  0  0  0  0
 13 11  2  0  0  0  0
 14  3  1  0  0  0  0
 15 14  1  0  0  0  0
 16 20  2  0  0  0  0
 16 19  1  0  0  0  0
 17 23  1  0  0  0  0
 17 16  1  0  0  0  0
 18 16  2  0  0  0  0
 21 17  1  0  0  0  0
 22 17  1  0  0  0  0
M  RAD  3  14   2  15   3  19   2
M  END
