Coordinates from ORCA-job p-NO2-Ph-N2-X-OTf-B3LYPG-6-31G_dp-scan-d09-49-n400
 OpenBabel08281820573D

 23 22  0  0  0  0  0  0  0  0999 V2000
   -2.0452   -0.7307   -5.0596 C   0  0  0  0  0  0  0  0  0  0  0  0
   -1.0003    0.1638   -5.2782 C   0  0  0  0  0  0  0  0  0  0  0  0
   -1.3065    1.5308   -5.1920 C   0  0  0  0  0  0  0  0  0  0  0  0
   -2.5820    2.0296   -4.8894 C   0  0  0  0  0  0  0  0  0  0  0  0
   -3.6103    1.1204   -4.6874 C   0  0  0  0  0  0  0  0  0  0  0  0
   -3.3178   -0.2408   -4.7764 C   0  0  0  0  0  0  0  0  0  0  0  0
   -1.8778   -1.7997   -5.1083 H   0  0  0  0  0  0  0  0  0  0  0  0
    0.0099   -0.1898   -5.4903 H   0  0  0  0  0  0  0  0  0  0  0  0
   -2.7523    3.0984   -4.8255 H   0  0  0  0  0  0  0  0  0  0  0  0
   -4.6188    1.4395   -4.4589 H   0  0  0  0  0  0  0  0  0  0  0  0
   -4.4186   -1.2102   -4.5513 N   0  0  0  0  0  0  0  0  0  0  0  0
   -5.5283   -0.7466   -4.3051 O   0  0  0  0  0  0  0  0  0  0  0  0
   -4.1399   -2.4013   -4.6281 O   0  0  0  0  0  0  0  0  0  0  0  0
   -0.2894    2.4727   -5.3956 N   0  0  0  0  0  0  0  0  0  0  0  0
    0.7113    2.8592   -5.7588 N   0  0  0  0  0  0  0  0  0  0  0  0
    2.5332    0.5241   -6.0691 S   0  0  0  0  0  0  0  0  0  0  0  0
    3.8637    0.1043   -7.2989 C   0  0  0  0  0  0  0  0  0  0  0  0
    1.5444    1.3063   -6.9276 O   0  0  0  0  0  0  0  0  0  0  0  0
    3.1696    1.3451   -5.0310 O   0  0  0  0  0  0  0  0  0  0  0  0
    1.9604   -0.7747   -5.6539 O   0  0  0  0  0  0  0  0  0  0  0  0
    3.3518   -0.6060   -8.3097 F   0  0  0  0  0  0  0  0  0  0  0  0
    4.4076    1.2237   -7.7862 F   0  0  0  0  0  0  0  0  0  0  0  0
    4.8146   -0.6170   -6.6969 F   0  0  0  0  0  0  0  0  0  0  0  0
  1  6  2  0  0  0  0
  2  3  2  0  0  0  0
  2  1  1  0  0  0  0
  3  4  1  0  0  0  0
  4  9  1  0  0  0  0
  4  5  2  0  0  0  0
  5 10  1  0  0  0  0
  6  5  1  0  0  0  0
  6 11  1  0  0  0  0
  7  1  1  0  0  0  0
  8  2  1  0  0  0  0
 11 12  2  0  0  0  0
 13 11  2  0  0  0  0
 14  3  1  0  0  0  0
 15 14  1  0  0  0  0
 16 20  2  0  0  0  0
 16 19  1  0  0  0  0
 17 23  1  0  0  0  0
 17 16  1  0  0  0  0
 18 16  2  0  0  0  0
 21 17  1  0  0  0  0
 22 17  1  0  0  0  0
M  RAD  3  14   2  15   3  19   2
M  END
