Coordinates from ORCA-job p-NO2-Ph-N2-X-OTf-B3LYPG-6-31G_dp-scan-d09-49-n400
 OpenBabel08281820583D

 23 22  0  0  0  0  0  0  0  0999 V2000
   -2.5229   -0.8178   -5.4108 C   0  0  0  0  0  0  0  0  0  0  0  0
   -1.5332   -0.3238   -6.2529 C   0  0  0  0  0  0  0  0  0  0  0  0
   -1.1408    1.0078   -6.0789 C   0  0  0  0  0  0  0  0  0  0  0  0
   -1.6756    1.8540   -5.0945 C   0  0  0  0  0  0  0  0  0  0  0  0
   -2.6461    1.3357   -4.2478 C   0  0  0  0  0  0  0  0  0  0  0  0
   -3.0545    0.0151   -4.4285 C   0  0  0  0  0  0  0  0  0  0  0  0
   -2.8747   -1.8380   -5.4955 H   0  0  0  0  0  0  0  0  0  0  0  0
   -1.0519   -0.9359   -7.0029 H   0  0  0  0  0  0  0  0  0  0  0  0
   -1.3291    2.8761   -4.9962 H   0  0  0  0  0  0  0  0  0  0  0  0
   -3.0919    1.9330   -3.4628 H   0  0  0  0  0  0  0  0  0  0  0  0
   -4.1028   -0.5253   -3.5309 N   0  0  0  0  0  0  0  0  0  0  0  0
   -4.5429    0.2296   -2.6691 O   0  0  0  0  0  0  0  0  0  0  0  0
   -4.4551   -1.6849   -3.7177 O   0  0  0  0  0  0  0  0  0  0  0  0
   -0.1961    1.5723   -6.9397 N   0  0  0  0  0  0  0  0  0  0  0  0
    0.3833    2.2827   -7.5856 N   0  0  0  0  0  0  0  0  0  0  0  0
    2.5420    0.0220   -7.2732 S   0  0  0  0  0  0  0  0  0  0  0  0
    3.1553    0.6461   -5.6351 C   0  0  0  0  0  0  0  0  0  0  0  0
    2.4526    1.2660   -8.0936 O   0  0  0  0  0  0  0  0  0  0  0  0
    1.1777   -0.4825   -6.9098 O   0  0  0  0  0  0  0  0  0  0  0  0
    3.5137   -0.9796   -7.7042 O   0  0  0  0  0  0  0  0  0  0  0  0
    4.3370    1.2536   -5.7572 F   0  0  0  0  0  0  0  0  0  0  0  0
    2.2674    1.5457   -5.1399 F   0  0  0  0  0  0  0  0  0  0  0  0
    3.2678   -0.3507   -4.7514 F   0  0  0  0  0  0  0  0  0  0  0  0
  1  6  2  0  0  0  0
  2  3  2  0  0  0  0
  2  1  1  0  0  0  0
  3  4  1  0  0  0  0
  4  9  1  0  0  0  0
  4  5  2  0  0  0  0
  5 10  1  0  0  0  0
  6  5  1  0  0  0  0
  6 11  1  0  0  0  0
  7  1  1  0  0  0  0
  8  2  1  0  0  0  0
 11 12  2  0  0  0  0
 13 11  2  0  0  0  0
 14  3  1  0  0  0  0
 15 14  1  0  0  0  0
 16 19  1  0  0  0  0
 16 17  1  0  0  0  0
 17 22  1  0  0  0  0
 17 23  1  0  0  0  0
 18 16  2  0  0  0  0
 20 16  2  0  0  0  0
 21 17  1  0  0  0  0
M  RAD  3  14   2  15   3  19   2
M  END
