Coordinates from ORCA-job p-NO2-Ph-N2-X-OTf-B3LYPG-6-31G_dp-scan-d09-49-n400
 OpenBabel08281820573D

 23 22  0  0  0  0  0  0  0  0999 V2000
   -2.3361   -0.7173   -5.5291 C   0  0  0  0  0  0  0  0  0  0  0  0
   -1.3236    0.0637   -6.0738 C   0  0  0  0  0  0  0  0  0  0  0  0
   -1.2659    1.4118   -5.6868 C   0  0  0  0  0  0  0  0  0  0  0  0
   -2.1666    1.9989   -4.7904 C   0  0  0  0  0  0  0  0  0  0  0  0
   -3.1650    1.2018   -4.2450 C   0  0  0  0  0  0  0  0  0  0  0  0
   -3.2289   -0.1365   -4.6295 C   0  0  0  0  0  0  0  0  0  0  0  0
   -2.4364   -1.7645   -5.7845 H   0  0  0  0  0  0  0  0  0  0  0  0
   -0.5925   -0.3323   -6.7694 H   0  0  0  0  0  0  0  0  0  0  0  0
   -2.0729    3.0461   -4.5279 H   0  0  0  0  0  0  0  0  0  0  0  0
   -3.8875    1.5927   -3.5401 H   0  0  0  0  0  0  0  0  0  0  0  0
   -4.3041   -0.9816   -4.0543 N   0  0  0  0  0  0  0  0  0  0  0  0
   -5.0701   -0.4460   -3.2590 O   0  0  0  0  0  0  0  0  0  0  0  0
   -4.3506   -2.1515   -4.4182 O   0  0  0  0  0  0  0  0  0  0  0  0
   -0.2713    2.2327   -6.2301 N   0  0  0  0  0  0  0  0  0  0  0  0
    0.6845    2.4124   -6.8172 N   0  0  0  0  0  0  0  0  0  0  0  0
    2.2204   -0.0819   -6.3152 S   0  0  0  0  0  0  0  0  0  0  0  0
    3.9125    0.6335   -6.5897 C   0  0  0  0  0  0  0  0  0  0  0  0
    1.4168    0.5640   -7.4541 O   0  0  0  0  0  0  0  0  0  0  0  0
    1.7867    0.4337   -5.0043 O   0  0  0  0  0  0  0  0  0  0  0  0
    2.3477   -1.5283   -6.4982 O   0  0  0  0  0  0  0  0  0  0  0  0
    4.3871    0.2671   -7.7824 F   0  0  0  0  0  0  0  0  0  0  0  0
    3.8473    1.9737   -6.5421 F   0  0  0  0  0  0  0  0  0  0  0  0
    4.7478    0.2090   -5.6369 F   0  0  0  0  0  0  0  0  0  0  0  0
  1  6  2  0  0  0  0
  2  3  2  0  0  0  0
  2  1  1  0  0  0  0
  3  4  1  0  0  0  0
  4  9  1  0  0  0  0
  4  5  2  0  0  0  0
  5 10  1  0  0  0  0
  6  5  1  0  0  0  0
  6 11  1  0  0  0  0
  7  1  1  0  0  0  0
  8  2  1  0  0  0  0
 11 12  2  0  0  0  0
 13 11  2  0  0  0  0
 14  3  1  0  0  0  0
 15 14  2  0  0  0  0
 16 19  1  0  0  0  0
 17 22  1  0  0  0  0
 17 16  1  0  0  0  0
 17 23  1  0  0  0  0
 18 16  2  0  0  0  0
 20 16  2  0  0  0  0
 21 17  1  0  0  0  0
M  RAD  2  15   2  19   2
M  END
