Coordinates from ORCA-job p-NO2-Ph-N2-X-OTf-B3LYPG-6-31G_dp-scan-d09-49-n400
 OpenBabel08281820573D

 23 22  0  0  0  0  0  0  0  0999 V2000
   -2.2940   -0.7144   -5.5242 C   0  0  0  0  0  0  0  0  0  0  0  0
   -1.3026    0.0945   -6.0676 C   0  0  0  0  0  0  0  0  0  0  0  0
   -1.2890    1.4460   -5.6875 C   0  0  0  0  0  0  0  0  0  0  0  0
   -2.2138    2.0096   -4.8003 C   0  0  0  0  0  0  0  0  0  0  0  0
   -3.1910    1.1854   -4.2575 C   0  0  0  0  0  0  0  0  0  0  0  0
   -3.2107   -0.1565   -4.6345 C   0  0  0  0  0  0  0  0  0  0  0  0
   -2.3588   -1.7657   -5.7741 H   0  0  0  0  0  0  0  0  0  0  0  0
   -0.5558   -0.2874   -6.7545 H   0  0  0  0  0  0  0  0  0  0  0  0
   -2.1537    3.0606   -4.5426 H   0  0  0  0  0  0  0  0  0  0  0  0
   -3.9301    1.5575   -3.5596 H   0  0  0  0  0  0  0  0  0  0  0  0
   -4.2629   -1.0313   -4.0609 N   0  0  0  0  0  0  0  0  0  0  0  0
   -5.0493   -0.5152   -3.2726 O   0  0  0  0  0  0  0  0  0  0  0  0
   -4.2716   -2.2039   -4.4188 O   0  0  0  0  0  0  0  0  0  0  0  0
   -0.3148    2.2956   -6.2239 N   0  0  0  0  0  0  0  0  0  0  0  0
    0.6398    2.5093   -6.8008 N   0  0  0  0  0  0  0  0  0  0  0  0
    2.1855    0.0092   -6.2891 S   0  0  0  0  0  0  0  0  0  0  0  0
    3.9366    0.5392   -6.6079 C   0  0  0  0  0  0  0  0  0  0  0  0
    1.4298    0.6865   -7.4407 O   0  0  0  0  0  0  0  0  0  0  0  0
    1.8233    0.6063   -4.9910 O   0  0  0  0  0  0  0  0  0  0  0  0
    2.1628   -1.4493   -6.4209 O   0  0  0  0  0  0  0  0  0  0  0  0
    4.3501    0.0927   -7.7965 F   0  0  0  0  0  0  0  0  0  0  0  0
    4.0110    1.8782   -6.5975 F   0  0  0  0  0  0  0  0  0  0  0  0
    4.7386    0.0542   -5.6552 F   0  0  0  0  0  0  0  0  0  0  0  0
  1  6  2  0  0  0  0
  2  3  2  0  0  0  0
  2  1  1  0  0  0  0
  3  4  1  0  0  0  0
  4  9  1  0  0  0  0
  4  5  2  0  0  0  0
  5 10  1  0  0  0  0
  6  5  1  0  0  0  0
  6 11  1  0  0  0  0
  7  1  1  0  0  0  0
  8  2  1  0  0  0  0
 11 12  2  0  0  0  0
 13 11  2  0  0  0  0
 14  3  1  0  0  0  0
 15 14  2  0  0  0  0
 16 19  1  0  0  0  0
 17 22  1  0  0  0  0
 17 16  1  0  0  0  0
 17 23  1  0  0  0  0
 18 16  2  0  0  0  0
 20 16  2  0  0  0  0
 21 17  1  0  0  0  0
M  RAD  2  15   2  19   2
M  END
