Coordinates from ORCA-job p-NO2-Ph-N2-X-OTf-B3LYPG-6-31G_dp-scan-d09-49-n400
 OpenBabel08281820583D

 23 22  0  0  0  0  0  0  0  0999 V2000
   -2.5742   -0.7789   -5.5377 C   0  0  0  0  0  0  0  0  0  0  0  0
   -1.6508   -0.2884   -6.4515 C   0  0  0  0  0  0  0  0  0  0  0  0
   -1.1319    0.9919   -6.2238 C   0  0  0  0  0  0  0  0  0  0  0  0
   -1.4698    1.7845   -5.1176 C   0  0  0  0  0  0  0  0  0  0  0  0
   -2.3795    1.2676   -4.2041 C   0  0  0  0  0  0  0  0  0  0  0  0
   -2.9191    0.0041   -4.4366 C   0  0  0  0  0  0  0  0  0  0  0  0
   -3.0153   -1.7601   -5.6556 H   0  0  0  0  0  0  0  0  0  0  0  0
   -1.3122   -0.8715   -7.2971 H   0  0  0  0  0  0  0  0  0  0  0  0
   -1.0202    2.7599   -4.9780 H   0  0  0  0  0  0  0  0  0  0  0  0
   -2.6770    1.8249   -3.3250 H   0  0  0  0  0  0  0  0  0  0  0  0
   -3.9007   -0.5321   -3.4661 N   0  0  0  0  0  0  0  0  0  0  0  0
   -4.1767    0.1748   -2.5014 O   0  0  0  0  0  0  0  0  0  0  0  0
   -4.3689   -1.6416   -3.6998 O   0  0  0  0  0  0  0  0  0  0  0  0
   -0.2548    1.5476   -7.1522 N   0  0  0  0  0  0  0  0  0  0  0  0
    0.3294    2.1718   -7.8753 N   0  0  0  0  0  0  0  0  0  0  0  0
    2.5044    0.0048   -7.1600 S   0  0  0  0  0  0  0  0  0  0  0  0
    2.8795    0.7353   -5.4930 C   0  0  0  0  0  0  0  0  0  0  0  0
    2.4899    1.2063   -8.0473 O   0  0  0  0  0  0  0  0  0  0  0  0
    1.1217   -0.5268   -6.9467 O   0  0  0  0  0  0  0  0  0  0  0  0
    3.5553   -0.9790   -7.4059 O   0  0  0  0  0  0  0  0  0  0  0  0
    4.0463    1.3809   -5.4899 F   0  0  0  0  0  0  0  0  0  0  0  0
    1.9046    1.6298   -5.1704 F   0  0  0  0  0  0  0  0  0  0  0  0
    2.8993   -0.2046   -4.5433 F   0  0  0  0  0  0  0  0  0  0  0  0
  1  6  2  0  0  0  0
  2  3  2  0  0  0  0
  2  1  1  0  0  0  0
  3  4  1  0  0  0  0
  4  9  1  0  0  0  0
  4  5  2  0  0  0  0
  5 10  1  0  0  0  0
  6  5  1  0  0  0  0
  6 11  1  0  0  0  0
  7  1  1  0  0  0  0
  8  2  1  0  0  0  0
 11 12  2  0  0  0  0
 13 11  2  0  0  0  0
 14  3  1  0  0  0  0
 15 14  1  0  0  0  0
 16 19  1  0  0  0  0
 16 17  1  0  0  0  0
 17 21  1  0  0  0  0
 17 22  1  0  0  0  0
 17 23  1  0  0  0  0
 18 16  2  0  0  0  0
 20 16  2  0  0  0  0
M  RAD  3  14   2  15   3  19   2
M  END
