Coordinates from ORCA-job p-NO2-Ph-N2-X-OTf-B3LYPG-6-31G_dp-scan-d09-49-n400
 OpenBabel08281820573D

 23 22  0  0  0  0  0  0  0  0999 V2000
   -2.1869   -0.7306   -5.3590 C   0  0  0  0  0  0  0  0  0  0  0  0
   -1.1835    0.1239   -5.8059 C   0  0  0  0  0  0  0  0  0  0  0  0
   -1.3317    1.4920   -5.5265 C   0  0  0  0  0  0  0  0  0  0  0  0
   -2.4250    2.0270   -4.8309 C   0  0  0  0  0  0  0  0  0  0  0  0
   -3.4173    1.1597   -4.3952 C   0  0  0  0  0  0  0  0  0  0  0  0
   -3.2757   -0.2001   -4.6703 C   0  0  0  0  0  0  0  0  0  0  0  0
   -2.1290   -1.7973   -5.5372 H   0  0  0  0  0  0  0  0  0  0  0  0
   -0.3146   -0.2510   -6.3358 H   0  0  0  0  0  0  0  0  0  0  0  0
   -2.4821    3.0924   -4.6392 H   0  0  0  0  0  0  0  0  0  0  0  0
   -4.2855    1.5105   -3.8525 H   0  0  0  0  0  0  0  0  0  0  0  0
   -4.3388   -1.1245   -4.2037 N   0  0  0  0  0  0  0  0  0  0  0  0
   -5.2808   -0.6278   -3.5933 O   0  0  0  0  0  0  0  0  0  0  0  0
   -4.1994   -2.3141   -4.4638 O   0  0  0  0  0  0  0  0  0  0  0  0
   -0.3456    2.3927   -5.9455 N   0  0  0  0  0  0  0  0  0  0  0  0
    0.6306    2.7004   -6.4335 N   0  0  0  0  0  0  0  0  0  0  0  0
    2.3029    0.2695   -6.1935 S   0  0  0  0  0  0  0  0  0  0  0  0
    4.0248    0.3167   -6.8901 C   0  0  0  0  0  0  0  0  0  0  0  0
    1.4872    0.9766   -7.2777 O   0  0  0  0  0  0  0  0  0  0  0  0
    2.3414    1.0518   -4.9456 O   0  0  0  0  0  0  0  0  0  0  0  0
    1.9444   -1.1540   -6.1036 O   0  0  0  0  0  0  0  0  0  0  0  0
    4.0652   -0.3207   -8.0636 F   0  0  0  0  0  0  0  0  0  0  0  0
    4.4098    1.5857   -7.0706 F   0  0  0  0  0  0  0  0  0  0  0  0
    4.8691   -0.2775   -6.0411 F   0  0  0  0  0  0  0  0  0  0  0  0
  1  6  2  0  0  0  0
  2  3  2  0  0  0  0
  2  1  1  0  0  0  0
  3  4  1  0  0  0  0
  4  9  1  0  0  0  0
  4  5  2  0  0  0  0
  5 10  1  0  0  0  0
  6  5  1  0  0  0  0
  6 11  1  0  0  0  0
  7  1  1  0  0  0  0
  8  2  1  0  0  0  0
 11 12  2  0  0  0  0
 13 11  2  0  0  0  0
 14  3  1  0  0  0  0
 15 14  1  0  0  0  0
 16 20  2  0  0  0  0
 16 19  1  0  0  0  0
 17 16  1  0  0  0  0
 17 23  1  0  0  0  0
 18 16  2  0  0  0  0
 21 17  1  0  0  0  0
 22 17  1  0  0  0  0
M  RAD  3  14   2  15   3  19   2
M  END
