Coordinates from ORCA-job p-NO2-Ph-N2-X-OTf-B3LYPG-6-31G_dp-scan-d09-49-n400
 OpenBabel08281820583D

 23 22  0  0  0  0  0  0  0  0999 V2000
   -2.6239   -0.6822   -5.7511 C   0  0  0  0  0  0  0  0  0  0  0  0
   -1.6259   -0.0005   -6.4346 C   0  0  0  0  0  0  0  0  0  0  0  0
   -1.2310    1.2478   -5.9322 C   0  0  0  0  0  0  0  0  0  0  0  0
   -1.7924    1.8409   -4.7966 C   0  0  0  0  0  0  0  0  0  0  0  0
   -2.7747    1.1361   -4.1124 C   0  0  0  0  0  0  0  0  0  0  0  0
   -3.1729   -0.1050   -4.6061 C   0  0  0  0  0  0  0  0  0  0  0  0
   -2.9722   -1.6519   -6.0820 H   0  0  0  0  0  0  0  0  0  0  0  0
   -1.1541   -0.4075   -7.3198 H   0  0  0  0  0  0  0  0  0  0  0  0
   -1.4516    2.8112   -4.4567 H   0  0  0  0  0  0  0  0  0  0  0  0
   -3.2371    1.5294   -3.2167 H   0  0  0  0  0  0  0  0  0  0  0  0
   -4.2360   -0.8419   -3.8837 N   0  0  0  0  0  0  0  0  0  0  0  0
   -4.6941   -0.3150   -2.8744 O   0  0  0  0  0  0  0  0  0  0  0  0
   -4.5837   -1.9216   -4.3506 O   0  0  0  0  0  0  0  0  0  0  0  0
   -0.2580    1.9561   -6.6366 N   0  0  0  0  0  0  0  0  0  0  0  0
    0.6403    2.1287   -7.3000 N   0  0  0  0  0  0  0  0  0  0  0  0
    2.2548   -0.2159   -6.3302 S   0  0  0  0  0  0  0  0  0  0  0  0
    3.7206    0.9229   -6.2473 C   0  0  0  0  0  0  0  0  0  0  0  0
    1.5852    0.2176   -7.6318 O   0  0  0  0  0  0  0  0  0  0  0  0
    1.4324    0.1652   -5.1617 O   0  0  0  0  0  0  0  0  0  0  0  0
    2.8145   -1.5663   -6.3867 O   0  0  0  0  0  0  0  0  0  0  0  0
    4.5203    0.7497   -7.3019 F   0  0  0  0  0  0  0  0  0  0  0  0
    3.3007    2.2049   -6.2355 F   0  0  0  0  0  0  0  0  0  0  0  0
    4.4180    0.6984   -5.1296 F   0  0  0  0  0  0  0  0  0  0  0  0
  1  6  2  0  0  0  0
  2  3  2  0  0  0  0
  2  1  1  0  0  0  0
  3  4  1  0  0  0  0
  4  9  1  0  0  0  0
  4  5  2  0  0  0  0
  5 10  1  0  0  0  0
  6  5  1  0  0  0  0
  6 11  1  0  0  0  0
  7  1  1  0  0  0  0
  8  2  1  0  0  0  0
 11 12  2  0  0  0  0
 13 11  2  0  0  0  0
 14  3  1  0  0  0  0
 15 14  1  0  0  0  0
 16 17  1  0  0  0  0
 16 19  1  0  0  0  0
 17 22  1  0  0  0  0
 17 23  1  0  0  0  0
 18 16  2  0  0  0  0
 20 16  2  0  0  0  0
 21 17  1  0  0  0  0
M  RAD  3  14   2  15   3  19   2
M  END
