Coordinates from ORCA-job p-NO2-Ph-N2-X-OTf-B3LYPG-6-31G_dp-scan-d09-49-n400
 OpenBabel08281820573D

 23 22  0  0  0  0  0  0  0  0999 V2000
   -2.3544   -0.7177   -5.5366 C   0  0  0  0  0  0  0  0  0  0  0  0
   -1.3361    0.0540   -6.0836 C   0  0  0  0  0  0  0  0  0  0  0  0
   -1.2597    1.3992   -5.6902 C   0  0  0  0  0  0  0  0  0  0  0  0
   -2.1474    1.9928   -4.7854 C   0  0  0  0  0  0  0  0  0  0  0  0
   -3.1516    1.2048   -4.2373 C   0  0  0  0  0  0  0  0  0  0  0  0
   -3.2343   -0.1307   -4.6283 C   0  0  0  0  0  0  0  0  0  0  0  0
   -2.4694   -1.7621   -5.7967 H   0  0  0  0  0  0  0  0  0  0  0  0
   -0.6135   -0.3459   -6.7858 H   0  0  0  0  0  0  0  0  0  0  0  0
   -2.0397    3.0376   -4.5186 H   0  0  0  0  0  0  0  0  0  0  0  0
   -3.8648    1.6007   -3.5257 H   0  0  0  0  0  0  0  0  0  0  0  0
   -4.3163   -0.9655   -4.0509 N   0  0  0  0  0  0  0  0  0  0  0  0
   -5.0707   -0.4250   -3.2481 O   0  0  0  0  0  0  0  0  0  0  0  0
   -4.3794   -2.1328   -4.4210 O   0  0  0  0  0  0  0  0  0  0  0  0
   -0.2599    2.2100   -6.2391 N   0  0  0  0  0  0  0  0  0  0  0  0
    0.6948    2.3796   -6.8307 N   0  0  0  0  0  0  0  0  0  0  0  0
    2.2338   -0.1071   -6.3191 S   0  0  0  0  0  0  0  0  0  0  0  0
    3.9036    0.6640   -6.5807 C   0  0  0  0  0  0  0  0  0  0  0  0
    1.4161    0.5206   -7.4582 O   0  0  0  0  0  0  0  0  0  0  0  0
    1.7777    0.3883   -5.0080 O   0  0  0  0  0  0  0  0  0  0  0  0
    2.4110   -1.5470   -6.5091 O   0  0  0  0  0  0  0  0  0  0  0  0
    4.3962    0.3197   -7.7727 F   0  0  0  0  0  0  0  0  0  0  0  0
    3.7958    2.0017   -6.5266 F   0  0  0  0  0  0  0  0  0  0  0  0
    4.7474    0.2620   -5.6257 F   0  0  0  0  0  0  0  0  0  0  0  0
  1  6  2  0  0  0  0
  2  3  2  0  0  0  0
  2  1  1  0  0  0  0
  3  4  1  0  0  0  0
  4  9  1  0  0  0  0
  4  5  2  0  0  0  0
  5 10  1  0  0  0  0
  6  5  1  0  0  0  0
  6 11  1  0  0  0  0
  7  1  1  0  0  0  0
  8  2  1  0  0  0  0
 11 12  2  0  0  0  0
 13 11  2  0  0  0  0
 14  3  1  0  0  0  0
 15 14  2  0  0  0  0
 16 19  1  0  0  0  0
 17 22  1  0  0  0  0
 17 16  1  0  0  0  0
 17 23  1  0  0  0  0
 18 16  2  0  0  0  0
 20 16  2  0  0  0  0
 21 17  1  0  0  0  0
M  RAD  2  15   2  19   2
M  END
