Coordinates from ORCA-job p-NO2-Ph-N2-X-OTf-B3LYPG-6-31G_dp-scan-d09-49-n400
 OpenBabel08281820573D

 23 22  0  0  0  0  0  0  0  0999 V2000
   -1.9158   -0.6990   -5.0356 C   0  0  0  0  0  0  0  0  0  0  0  0
   -0.9013    0.2493   -5.1696 C   0  0  0  0  0  0  0  0  0  0  0  0
   -1.2999    1.5920   -5.1006 C   0  0  0  0  0  0  0  0  0  0  0  0
   -2.6186    2.0307   -4.8965 C   0  0  0  0  0  0  0  0  0  0  0  0
   -3.6045    1.0649   -4.7739 C   0  0  0  0  0  0  0  0  0  0  0  0
   -3.2292   -0.2793   -4.8455 C   0  0  0  0  0  0  0  0  0  0  0  0
   -1.6907   -1.7579   -5.0777 H   0  0  0  0  0  0  0  0  0  0  0  0
    0.1695   -0.0385   -5.3070 H   0  0  0  0  0  0  0  0  0  0  0  0
   -2.8515    3.0883   -4.8462 H   0  0  0  0  0  0  0  0  0  0  0  0
   -4.6438    1.3247   -4.6210 H   0  0  0  0  0  0  0  0  0  0  0  0
   -4.2919   -1.3073   -4.7041 N   0  0  0  0  0  0  0  0  0  0  0  0
   -5.4388   -0.9036   -4.5351 O   0  0  0  0  0  0  0  0  0  0  0  0
   -3.9467   -2.4814   -4.7666 O   0  0  0  0  0  0  0  0  0  0  0  0
   -0.3093    2.5690   -5.2300 N   0  0  0  0  0  0  0  0  0  0  0  0
    0.6479    3.1023   -5.4815 N   0  0  0  0  0  0  0  0  0  0  0  0
    2.5926    0.7122   -6.0185 S   0  0  0  0  0  0  0  0  0  0  0  0
    3.6023   -0.0937   -7.3561 C   0  0  0  0  0  0  0  0  0  0  0  0
    1.7223    1.6657   -6.8029 O   0  0  0  0  0  0  0  0  0  0  0  0
    3.5474    1.3512   -5.1090 O   0  0  0  0  0  0  0  0  0  0  0  0
    1.7841   -0.4056   -5.4491 O   0  0  0  0  0  0  0  0  0  0  0  0
    2.8016   -0.6987   -8.2426 F   0  0  0  0  0  0  0  0  0  0  0  0
    4.3378    0.8227   -7.9930 F   0  0  0  0  0  0  0  0  0  0  0  0
    4.4159   -1.0069   -6.8159 F   0  0  0  0  0  0  0  0  0  0  0  0
  1  6  2  0  0  0  0
  2  3  2  0  0  0  0
  2  1  1  0  0  0  0
  3  4  1  0  0  0  0
  4  9  1  0  0  0  0
  4  5  2  0  0  0  0
  5 10  1  0  0  0  0
  6  5  1  0  0  0  0
  6 11  1  0  0  0  0
  7  1  1  0  0  0  0
  8  2  1  0  0  0  0
 11 12  2  0  0  0  0
 13 11  2  0  0  0  0
 14  3  1  0  0  0  0
 15 14  1  0  0  0  0
 16 20  2  0  0  0  0
 16 19  1  0  0  0  0
 17 23  1  0  0  0  0
 17 16  1  0  0  0  0
 18 16  2  0  0  0  0
 21 17  1  0  0  0  0
 22 17  1  0  0  0  0
M  RAD  3  14   2  15   3  19   2
M  END
