Coordinates from ORCA-job p-NO2-Ph-N2-X-OTf-B3LYPG-6-31G_dp-scan-d09-49-n400
 OpenBabel08281820573D

 23 22  0  0  0  0  0  0  0  0999 V2000
   -2.1285   -0.7408   -5.1785 C   0  0  0  0  0  0  0  0  0  0  0  0
   -1.0878    0.1246   -5.5047 C   0  0  0  0  0  0  0  0  0  0  0  0
   -1.3222    1.4989   -5.3383 C   0  0  0  0  0  0  0  0  0  0  0  0
   -2.5301    2.0287   -4.8623 C   0  0  0  0  0  0  0  0  0  0  0  0
   -3.5588    1.1501   -4.5524 C   0  0  0  0  0  0  0  0  0  0  0  0
   -3.3339   -0.2164   -4.7172 C   0  0  0  0  0  0  0  0  0  0  0  0
   -2.0105   -1.8127   -5.2793 H   0  0  0  0  0  0  0  0  0  0  0  0
   -0.1330   -0.2537   -5.8589 H   0  0  0  0  0  0  0  0  0  0  0  0
   -2.6485    3.1000   -4.7454 H   0  0  0  0  0  0  0  0  0  0  0  0
   -4.5160    1.4969   -4.1858 H   0  0  0  0  0  0  0  0  0  0  0  0
   -4.4334   -1.1540   -4.3800 N   0  0  0  0  0  0  0  0  0  0  0  0
   -5.4806   -0.6612   -3.9709 O   0  0  0  0  0  0  0  0  0  0  0  0
   -4.2162   -2.3502   -4.5357 O   0  0  0  0  0  0  0  0  0  0  0  0
   -0.3062    2.4158   -5.6378 N   0  0  0  0  0  0  0  0  0  0  0  0
    0.6909    2.7531   -6.0602 N   0  0  0  0  0  0  0  0  0  0  0  0
    2.4507    0.3853   -6.1281 S   0  0  0  0  0  0  0  0  0  0  0  0
    4.0000    0.2315   -7.1437 C   0  0  0  0  0  0  0  0  0  0  0  0
    1.5062    1.1134   -7.0838 O   0  0  0  0  0  0  0  0  0  0  0  0
    2.8004    1.2066   -4.9585 O   0  0  0  0  0  0  0  0  0  0  0  0
    1.9947   -0.9953   -5.8858 O   0  0  0  0  0  0  0  0  0  0  0  0
    3.7510   -0.4547   -8.2635 F   0  0  0  0  0  0  0  0  0  0  0  0
    4.4552    1.4458   -7.4699 F   0  0  0  0  0  0  0  0  0  0  0  0
    4.9358   -0.4104   -6.4374 F   0  0  0  0  0  0  0  0  0  0  0  0
  1  6  2  0  0  0  0
  2  3  2  0  0  0  0
  2  1  1  0  0  0  0
  3  4  1  0  0  0  0
  4  9  1  0  0  0  0
  4  5  2  0  0  0  0
  5 10  1  0  0  0  0
  6  5  1  0  0  0  0
  6 11  1  0  0  0  0
  7  1  1  0  0  0  0
  8  2  1  0  0  0  0
 11 12  2  0  0  0  0
 13 11  2  0  0  0  0
 14  3  1  0  0  0  0
 15 14  1  0  0  0  0
 16 20  2  0  0  0  0
 16 19  1  0  0  0  0
 17 23  1  0  0  0  0
 17 16  1  0  0  0  0
 18 16  2  0  0  0  0
 21 17  1  0  0  0  0
 22 17  1  0  0  0  0
M  RAD  3  14   2  15   3  19   2
M  END
