Coordinates from ORCA-job p-NO2-Ph-N2-X-OTf-B3LYPG-6-31G_dp-scan-d09-49-n400
 OpenBabel08281820573D

 23 22  0  0  0  0  0  0  0  0999 V2000
   -2.2510   -0.7121   -5.5143 C   0  0  0  0  0  0  0  0  0  0  0  0
   -1.2784    0.1222   -6.0539 C   0  0  0  0  0  0  0  0  0  0  0  0
   -1.3097    1.4760   -5.6832 C   0  0  0  0  0  0  0  0  0  0  0  0
   -2.2602    2.0178   -4.8091 C   0  0  0  0  0  0  0  0  0  0  0  0
   -3.2185    1.1687   -4.2714 C   0  0  0  0  0  0  0  0  0  0  0  0
   -3.1940   -0.1759   -4.6393 C   0  0  0  0  0  0  0  0  0  0  0  0
   -2.2802   -1.7668   -5.7570 H   0  0  0  0  0  0  0  0  0  0  0  0
   -0.5133   -0.2479   -6.7270 H   0  0  0  0  0  0  0  0  0  0  0  0
   -2.2338    3.0717   -4.5575 H   0  0  0  0  0  0  0  0  0  0  0  0
   -3.9759    1.5231   -3.5840 H   0  0  0  0  0  0  0  0  0  0  0  0
   -4.2262   -1.0775   -4.0706 N   0  0  0  0  0  0  0  0  0  0  0  0
   -5.0340   -0.5799   -3.2922 O   0  0  0  0  0  0  0  0  0  0  0  0
   -4.1985   -2.2514   -4.4227 O   0  0  0  0  0  0  0  0  0  0  0  0
   -0.3551    2.3512   -6.2126 N   0  0  0  0  0  0  0  0  0  0  0  0
    0.5947    2.6064   -6.7785 N   0  0  0  0  0  0  0  0  0  0  0  0
    2.1611    0.1047   -6.2702 S   0  0  0  0  0  0  0  0  0  0  0  0
    3.9517    0.4448   -6.6275 C   0  0  0  0  0  0  0  0  0  0  0  0
    1.4544    0.8111   -7.4326 O   0  0  0  0  0  0  0  0  0  0  0  0
    1.8768    0.7696   -4.9856 O   0  0  0  0  0  0  0  0  0  0  0  0
    1.9942   -1.3501   -6.3517 O   0  0  0  0  0  0  0  0  0  0  0  0
    4.2967   -0.0773   -7.8075 F   0  0  0  0  0  0  0  0  0  0  0  0
    4.1646    1.7672   -6.6585 F   0  0  0  0  0  0  0  0  0  0  0  0
    4.7140   -0.0945   -5.6713 F   0  0  0  0  0  0  0  0  0  0  0  0
  1  6  2  0  0  0  0
  2  3  2  0  0  0  0
  2  1  1  0  0  0  0
  3  4  1  0  0  0  0
  4  9  1  0  0  0  0
  4  5  2  0  0  0  0
  5 10  1  0  0  0  0
  6  5  1  0  0  0  0
  6 11  1  0  0  0  0
  7  1  1  0  0  0  0
  8  2  1  0  0  0  0
 11 12  2  0  0  0  0
 13 11  2  0  0  0  0
 14  3  1  0  0  0  0
 15 14  2  0  0  0  0
 16 19  1  0  0  0  0
 17 16  1  0  0  0  0
 17 23  1  0  0  0  0
 18 16  2  0  0  0  0
 20 16  2  0  0  0  0
 21 17  1  0  0  0  0
 22 17  1  0  0  0  0
M  RAD  2  15   2  19   2
M  END
