Coordinates from ORCA-job p-NO2-Ph-N2-X-OTf-B3LYPG-6-31G_dp-scan-d09-49-n400
 OpenBabel08281820573D

 23 22  0  0  0  0  0  0  0  0999 V2000
   -2.0082   -0.7224   -5.0314 C   0  0  0  0  0  0  0  0  0  0  0  0
   -0.9688    0.1862   -5.2184 C   0  0  0  0  0  0  0  0  0  0  0  0
   -1.3009    1.5478   -5.1533 C   0  0  0  0  0  0  0  0  0  0  0  0
   -2.5933    2.0308   -4.9002 C   0  0  0  0  0  0  0  0  0  0  0  0
   -3.6140    1.1072   -4.7292 C   0  0  0  0  0  0  0  0  0  0  0  0
   -3.2973   -0.2503   -4.7978 C   0  0  0  0  0  0  0  0  0  0  0  0
   -1.8232   -1.7891   -5.0669 H   0  0  0  0  0  0  0  0  0  0  0  0
    0.0572   -0.1531   -5.3915 H   0  0  0  0  0  0  0  0  0  0  0  0
   -2.7821    3.0973   -4.8507 H   0  0  0  0  0  0  0  0  0  0  0  0
   -4.6349    1.4119   -4.5399 H   0  0  0  0  0  0  0  0  0  0  0  0
   -4.3909   -1.2348   -4.6047 N   0  0  0  0  0  0  0  0  0  0  0  0
   -5.5155   -0.7864   -4.4019 O   0  0  0  0  0  0  0  0  0  0  0  0
   -4.0918   -2.4220   -4.6617 O   0  0  0  0  0  0  0  0  0  0  0  0
   -0.2885    2.5006   -5.3278 N   0  0  0  0  0  0  0  0  0  0  0  0
    0.7103    2.9093   -5.6680 N   0  0  0  0  0  0  0  0  0  0  0  0
    2.5478    0.5707   -6.0519 S   0  0  0  0  0  0  0  0  0  0  0  0
    3.7960    0.0540   -7.3306 C   0  0  0  0  0  0  0  0  0  0  0  0
    1.5679    1.3890   -6.8835 O   0  0  0  0  0  0  0  0  0  0  0  0
    3.2752    1.3662   -5.0560 O   0  0  0  0  0  0  0  0  0  0  0  0
    1.9241   -0.6904   -5.5881 O   0  0  0  0  0  0  0  0  0  0  0  0
    3.2002   -0.6449   -8.3031 F   0  0  0  0  0  0  0  0  0  0  0  0
    4.3782    1.1320   -7.8645 F   0  0  0  0  0  0  0  0  0  0  0  0
    4.7319   -0.7086   -6.7570 F   0  0  0  0  0  0  0  0  0  0  0  0
  1  6  2  0  0  0  0
  2  3  2  0  0  0  0
  2  1  1  0  0  0  0
  3  4  1  0  0  0  0
  4  9  1  0  0  0  0
  4  5  2  0  0  0  0
  5 10  1  0  0  0  0
  6  5  1  0  0  0  0
  6 11  1  0  0  0  0
  7  1  1  0  0  0  0
  8  2  1  0  0  0  0
 11 12  2  0  0  0  0
 13 11  2  0  0  0  0
 14  3  1  0  0  0  0
 15 14  1  0  0  0  0
 16 20  2  0  0  0  0
 16 19  1  0  0  0  0
 17 23  1  0  0  0  0
 17 16  1  0  0  0  0
 18 16  2  0  0  0  0
 21 17  1  0  0  0  0
 22 17  1  0  0  0  0
M  RAD  3  14   2  15   3  19   2
M  END
