Coordinates from ORCA-job p-NO2-Ph-N2-X-OTf-B3LYPG-6-31G_dp-scan-d09-49-n400
 OpenBabel08281820573D

 23 22  0  0  0  0  0  0  0  0999 V2000
   -1.6315   -0.5652   -4.9517 C   0  0  0  0  0  0  0  0  0  0  0  0
   -0.6595    0.4688   -4.9290 C   0  0  0  0  0  0  0  0  0  0  0  0
   -1.2729    1.7300   -4.9601 C   0  0  0  0  0  0  0  0  0  0  0  0
   -2.6504    2.0647   -5.0077 C   0  0  0  0  0  0  0  0  0  0  0  0
   -3.5297    1.0055   -5.0287 C   0  0  0  0  0  0  0  0  0  0  0  0
   -2.9915   -0.2944   -4.9989 C   0  0  0  0  0  0  0  0  0  0  0  0
   -1.3227   -1.6056   -4.9334 H   0  0  0  0  0  0  0  0  0  0  0  0
    1.0308    0.1269   -4.9270 H   0  0  0  0  0  0  0  0  0  0  0  0
   -2.9945    3.0939   -5.0292 H   0  0  0  0  0  0  0  0  0  0  0  0
   -4.6020    1.1448   -5.0672 H   0  0  0  0  0  0  0  0  0  0  0  0
   -3.9543   -1.4279   -5.0210 N   0  0  0  0  0  0  0  0  0  0  0  0
   -5.1508   -1.1480   -5.0643 O   0  0  0  0  0  0  0  0  0  0  0  0
   -3.4933   -2.5636   -4.9951 O   0  0  0  0  0  0  0  0  0  0  0  0
   -0.3920    2.8141   -4.9349 N   0  0  0  0  0  0  0  0  0  0  0  0
    0.3437    3.6501   -4.9132 N   0  0  0  0  0  0  0  0  0  0  0  0
    2.8323    0.7543   -5.9136 S   0  0  0  0  0  0  0  0  0  0  0  0
    2.7687   -0.3117   -7.4375 C   0  0  0  0  0  0  0  0  0  0  0  0
    2.1178    1.9869   -6.2578 O   0  0  0  0  0  0  0  0  0  0  0  0
    4.2132    0.7811   -5.4684 O   0  0  0  0  0  0  0  0  0  0  0  0
    1.9698   -0.1167   -4.9199 O   0  0  0  0  0  0  0  0  0  0  0  0
    1.4924   -0.5146   -7.7844 F   0  0  0  0  0  0  0  0  0  0  0  0
    3.4015    0.3120   -8.4323 F   0  0  0  0  0  0  0  0  0  0  0  0
    3.3540   -1.4843   -7.2030 F   0  0  0  0  0  0  0  0  0  0  0  0
  1  7  1  0  0  0  0
  1  2  1  0  0  0  0
  3 14  1  0  0  0  0
  3  2  2  0  0  0  0
  4  3  1  0  0  0  0
  5  4  2  0  0  0  0
  5  6  1  0  0  0  0
  6  1  2  0  0  0  0
  8 20  1  0  0  0  0
  9  4  1  0  0  0  0
 10  5  1  0  0  0  0
 11  6  1  0  0  0  0
 11 13  2  0  0  0  0
 12 11  2  0  0  0  0
 14 15  1  0  0  0  0
 16 19  2  0  0  0  0
 16 20  1  0  0  0  0
 17 23  1  0  0  0  0
 17 16  1  0  0  0  0
 18 16  2  0  0  0  0
 21 17  1  0  0  0  0
 22 17  1  0  0  0  0
M  RAD  3   2   2  14   2  15   3
M  END
