Coordinates from ORCA-job p-NO2-Ph-N2-X-OTf-B3LYPG-6-31G_dp-scan-d09-49-n400
 OpenBabel08281820573D

 23 22  0  0  0  0  0  0  0  0999 V2000
   -2.0270   -0.7270   -5.0370 C   0  0  0  0  0  0  0  0  0  0  0  0
   -0.9837    0.1733   -5.2397 C   0  0  0  0  0  0  0  0  0  0  0  0
   -1.3024    1.5381   -5.1706 C   0  0  0  0  0  0  0  0  0  0  0  0
   -2.5874    2.0304   -4.8991 C   0  0  0  0  0  0  0  0  0  0  0  0
   -3.6133    1.1152   -4.7130 C   0  0  0  0  0  0  0  0  0  0  0  0
   -3.3090   -0.2445   -4.7852 C   0  0  0  0  0  0  0  0  0  0  0  0
   -1.8509   -1.7952   -5.0743 H   0  0  0  0  0  0  0  0  0  0  0  0
    0.0345   -0.1753   -5.4275 H   0  0  0  0  0  0  0  0  0  0  0  0
   -2.7668    3.0984   -4.8470 H   0  0  0  0  0  0  0  0  0  0  0  0
   -4.6288    1.4285   -4.5090 H   0  0  0  0  0  0  0  0  0  0  0  0
   -4.4074   -1.2202   -4.5762 N   0  0  0  0  0  0  0  0  0  0  0  0
   -5.5256   -0.7630   -4.3584 O   0  0  0  0  0  0  0  0  0  0  0  0
   -4.1184   -2.4098   -4.6366 O   0  0  0  0  0  0  0  0  0  0  0  0
   -0.2866    2.4848   -5.3591 N   0  0  0  0  0  0  0  0  0  0  0  0
    0.7142    2.8793   -5.7123 N   0  0  0  0  0  0  0  0  0  0  0  0
    2.5377    0.5404   -6.0643 S   0  0  0  0  0  0  0  0  0  0  0  0
    3.8336    0.0855   -7.3183 C   0  0  0  0  0  0  0  0  0  0  0  0
    1.5514    1.3422   -6.9066 O   0  0  0  0  0  0  0  0  0  0  0  0
    3.2133    1.3466   -5.0401 O   0  0  0  0  0  0  0  0  0  0  0  0
    1.9433   -0.7450   -5.6348 O   0  0  0  0  0  0  0  0  0  0  0  0
    3.2853   -0.6137   -8.3178 F   0  0  0  0  0  0  0  0  0  0  0  0
    4.3955    1.1903   -7.8183 F   0  0  0  0  0  0  0  0  0  0  0  0
    4.7778   -0.6580   -6.7330 F   0  0  0  0  0  0  0  0  0  0  0  0
  1  6  2  0  0  0  0
  2  3  2  0  0  0  0
  2  1  1  0  0  0  0
  3  4  1  0  0  0  0
  4  9  1  0  0  0  0
  4  5  2  0  0  0  0
  5 10  1  0  0  0  0
  6  5  1  0  0  0  0
  6 11  1  0  0  0  0
  7  1  1  0  0  0  0
  8  2  1  0  0  0  0
 11 12  2  0  0  0  0
 13 11  2  0  0  0  0
 14  3  1  0  0  0  0
 15 14  1  0  0  0  0
 16 20  2  0  0  0  0
 16 19  1  0  0  0  0
 17 23  1  0  0  0  0
 17 16  1  0  0  0  0
 18 16  2  0  0  0  0
 21 17  1  0  0  0  0
 22 17  1  0  0  0  0
M  RAD  3  14   2  15   3  19   2
M  END
