Coordinates from ORCA-job p-NO2-Ph-N2-X-OTf-B3LYPG-6-31G_dp-scan-d09-49-n400
 OpenBabel08281820573D

 23 22  0  0  0  0  0  0  0  0999 V2000
   -2.0741   -0.7349   -5.0909 C   0  0  0  0  0  0  0  0  0  0  0  0
   -1.0278    0.1501   -5.3384 C   0  0  0  0  0  0  0  0  0  0  0  0
   -1.3133    1.5202   -5.2302 C   0  0  0  0  0  0  0  0  0  0  0  0
   -2.5722    2.0296   -4.8805 C   0  0  0  0  0  0  0  0  0  0  0  0
   -3.6037    1.1305   -4.6498 C   0  0  0  0  0  0  0  0  0  0  0  0
   -3.3305   -0.2330   -4.7598 C   0  0  0  0  0  0  0  0  0  0  0  0
   -1.9208   -1.8053   -5.1540 H   0  0  0  0  0  0  0  0  0  0  0  0
   -0.0320   -0.2116   -5.5896 H   0  0  0  0  0  0  0  0  0  0  0  0
   -2.7277    3.0997   -4.8017 H   0  0  0  0  0  0  0  0  0  0  0  0
   -4.5998    1.4592   -4.3839 H   0  0  0  0  0  0  0  0  0  0  0  0
   -4.4340   -1.1918   -4.5052 N   0  0  0  0  0  0  0  0  0  0  0  0
   -5.5287   -0.7179   -4.2151 O   0  0  0  0  0  0  0  0  0  0  0  0
   -4.1731   -2.3851   -4.6067 O   0  0  0  0  0  0  0  0  0  0  0  0
   -0.2939    2.4541   -5.4589 N   0  0  0  0  0  0  0  0  0  0  0  0
    0.7093    2.8207   -5.8386 N   0  0  0  0  0  0  0  0  0  0  0  0
    2.5226    0.4831   -6.0775 S   0  0  0  0  0  0  0  0  0  0  0  0
    3.9118    0.1432   -7.2661 C   0  0  0  0  0  0  0  0  0  0  0  0
    1.5299    1.2394   -6.9576 O   0  0  0  0  0  0  0  0  0  0  0  0
    3.0844    1.3179   -5.0068 O   0  0  0  0  0  0  0  0  0  0  0  0
    1.9917   -0.8434   -5.7029 O   0  0  0  0  0  0  0  0  0  0  0  0
    3.4673   -0.5748   -8.3027 F   0  0  0  0  0  0  0  0  0  0  0  0
    4.4192    1.2937   -7.7197 F   0  0  0  0  0  0  0  0  0  0  0  0
    4.8746   -0.5424   -6.6416 F   0  0  0  0  0  0  0  0  0  0  0  0
  1  6  2  0  0  0  0
  2  3  2  0  0  0  0
  2  1  1  0  0  0  0
  3  4  1  0  0  0  0
  4  9  1  0  0  0  0
  4  5  2  0  0  0  0
  5 10  1  0  0  0  0
  6  5  1  0  0  0  0
  6 11  1  0  0  0  0
  7  1  1  0  0  0  0
  8  2  1  0  0  0  0
 11 12  2  0  0  0  0
 13 11  2  0  0  0  0
 14  3  1  0  0  0  0
 15 14  1  0  0  0  0
 16 20  2  0  0  0  0
 16 19  1  0  0  0  0
 17 23  1  0  0  0  0
 17 16  1  0  0  0  0
 18 16  2  0  0  0  0
 21 17  1  0  0  0  0
 22 17  1  0  0  0  0
M  RAD  3  14   2  15   3  19   2
M  END
