Coordinates from ORCA-job p-NO2-Ph-N2-X-OTf-B3LYPG-6-31G_dp-scan-d09-49-n400
 OpenBabel08281820573D

 23 22  0  0  0  0  0  0  0  0999 V2000
   -1.8012   -0.6586   -5.0300 C   0  0  0  0  0  0  0  0  0  0  0  0
   -0.8124    0.3277   -5.1145 C   0  0  0  0  0  0  0  0  0  0  0  0
   -1.2833    1.6463   -5.0464 C   0  0  0  0  0  0  0  0  0  0  0  0
   -2.6262    2.0406   -4.8956 C   0  0  0  0  0  0  0  0  0  0  0  0
   -3.5723    1.0343   -4.8180 C   0  0  0  0  0  0  0  0  0  0  0  0
   -3.1355   -0.2941   -4.8866 C   0  0  0  0  0  0  0  0  0  0  0  0
   -1.5361   -1.7084   -5.0748 H   0  0  0  0  0  0  0  0  0  0  0  0
    0.3280    0.0819   -5.2260 H   0  0  0  0  0  0  0  0  0  0  0  0
   -2.9039    3.0877   -4.8490 H   0  0  0  0  0  0  0  0  0  0  0  0
   -4.6271    1.2475   -4.7045 H   0  0  0  0  0  0  0  0  0  0  0  0
   -4.1626   -1.3648   -4.7959 N   0  0  0  0  0  0  0  0  0  0  0  0
   -5.3304   -1.0078   -4.6682 O   0  0  0  0  0  0  0  0  0  0  0  0
   -3.7700   -2.5239   -4.8545 O   0  0  0  0  0  0  0  0  0  0  0  0
   -0.3219    2.6533   -5.1301 N   0  0  0  0  0  0  0  0  0  0  0  0
    0.5710    3.3089   -5.2749 N   0  0  0  0  0  0  0  0  0  0  0  0
    2.6535    0.7555   -5.9688 S   0  0  0  0  0  0  0  0  0  0  0  0
    3.3247   -0.1971   -7.4162 C   0  0  0  0  0  0  0  0  0  0  0  0
    1.8973    1.8715   -6.6170 O   0  0  0  0  0  0  0  0  0  0  0  0
    3.8100    1.1314   -5.1557 O   0  0  0  0  0  0  0  0  0  0  0  0
    1.7110   -0.2302   -5.3261 O   0  0  0  0  0  0  0  0  0  0  0  0
    2.3215   -0.6028   -8.2082 F   0  0  0  0  0  0  0  0  0  0  0  0
    4.1510    0.5740   -8.1302 F   0  0  0  0  0  0  0  0  0  0  0  0
    3.9942   -1.2717   -6.9870 F   0  0  0  0  0  0  0  0  0  0  0  0
  1  6  2  0  0  0  0
  2  3  2  0  0  0  0
  2  1  1  0  0  0  0
  3  4  1  0  0  0  0
  4  9  1  0  0  0  0
  4  5  2  0  0  0  0
  5 10  1  0  0  0  0
  6  5  1  0  0  0  0
  6 11  1  0  0  0  0
  7  1  1  0  0  0  0
  8  2  1  0  0  0  0
 11 12  2  0  0  0  0
 13 11  2  0  0  0  0
 14  3  1  0  0  0  0
 15 14  1  0  0  0  0
 16 20  2  0  0  0  0
 16 19  1  0  0  0  0
 17 23  1  0  0  0  0
 17 16  1  0  0  0  0
 18 16  2  0  0  0  0
 21 17  1  0  0  0  0
 22 17  1  0  0  0  0
M  RAD  3  14   2  15   3  19   2
M  END
