Coordinates from ORCA-job p-NO2-Ph-N2-X-OTf-B3LYPG-6-31G_dp-scan-d09-49-n400
 OpenBabel08281820573D

 23 22  0  0  0  0  0  0  0  0999 V2000
   -2.0770   -0.7354   -5.0935 C   0  0  0  0  0  0  0  0  0  0  0  0
   -1.0305    0.1488   -5.3428 C   0  0  0  0  0  0  0  0  0  0  0  0
   -1.3141    1.5191   -5.2330 C   0  0  0  0  0  0  0  0  0  0  0  0
   -2.5715    2.0296   -4.8799 C   0  0  0  0  0  0  0  0  0  0  0  0
   -3.6034    1.1315   -4.6473 C   0  0  0  0  0  0  0  0  0  0  0  0
   -3.3320   -0.2322   -4.7589 C   0  0  0  0  0  0  0  0  0  0  0  0
   -1.9250   -1.8059   -5.1576 H   0  0  0  0  0  0  0  0  0  0  0  0
   -0.0358   -0.2134   -5.5967 H   0  0  0  0  0  0  0  0  0  0  0  0
   -2.7256    3.0998   -4.7999 H   0  0  0  0  0  0  0  0  0  0  0  0
   -4.5985    1.4610   -4.3787 H   0  0  0  0  0  0  0  0  0  0  0  0
   -4.4361   -1.1900   -4.5025 N   0  0  0  0  0  0  0  0  0  0  0  0
   -5.5291   -0.7152   -4.2079 O   0  0  0  0  0  0  0  0  0  0  0  0
   -4.1765   -2.3835   -4.6047 O   0  0  0  0  0  0  0  0  0  0  0  0
   -0.2941    2.4519   -5.4635 N   0  0  0  0  0  0  0  0  0  0  0  0
    0.7094    2.8167   -5.8442 N   0  0  0  0  0  0  0  0  0  0  0  0
    2.5230    0.4796   -6.0774 S   0  0  0  0  0  0  0  0  0  0  0  0
    3.9156    0.1469   -7.2640 C   0  0  0  0  0  0  0  0  0  0  0  0
    1.5289    1.2329   -6.9588 O   0  0  0  0  0  0  0  0  0  0  0  0
    3.0794    1.3160   -5.0052 O   0  0  0  0  0  0  0  0  0  0  0  0
    1.9974   -0.8495   -5.7052 O   0  0  0  0  0  0  0  0  0  0  0  0
    3.4758   -0.5725   -8.3018 F   0  0  0  0  0  0  0  0  0  0  0  0
    4.4184    1.2999   -7.7162 F   0  0  0  0  0  0  0  0  0  0  0  0
    4.8806   -0.5348   -6.6386 F   0  0  0  0  0  0  0  0  0  0  0  0
  1  6  2  0  0  0  0
  2  3  2  0  0  0  0
  2  1  1  0  0  0  0
  3  4  1  0  0  0  0
  4  9  1  0  0  0  0
  4  5  2  0  0  0  0
  5 10  1  0  0  0  0
  6  5  1  0  0  0  0
  6 11  1  0  0  0  0
  7  1  1  0  0  0  0
  8  2  1  0  0  0  0
 11 12  2  0  0  0  0
 13 11  2  0  0  0  0
 14  3  1  0  0  0  0
 15 14  1  0  0  0  0
 16 20  2  0  0  0  0
 16 19  1  0  0  0  0
 17 23  1  0  0  0  0
 17 16  1  0  0  0  0
 18 16  2  0  0  0  0
 21 17  1  0  0  0  0
 22 17  1  0  0  0  0
M  RAD  3  14   2  15   3  19   2
M  END
