Coordinates from ORCA-job p-NO2-Ph-N2-X-OTf-B3LYPG-6-31G_dp-scan-d09-49-n400
 OpenBabel08281820573D

 23 22  0  0  0  0  0  0  0  0999 V2000
   -2.2994   -0.7148   -5.5243 C   0  0  0  0  0  0  0  0  0  0  0  0
   -1.3050    0.0900   -6.0681 C   0  0  0  0  0  0  0  0  0  0  0  0
   -1.2853    1.4413   -5.6876 C   0  0  0  0  0  0  0  0  0  0  0  0
   -2.2069    2.0085   -4.7995 C   0  0  0  0  0  0  0  0  0  0  0  0
   -3.1872    1.1883   -4.2560 C   0  0  0  0  0  0  0  0  0  0  0  0
   -3.2130   -0.1534   -4.6335 C   0  0  0  0  0  0  0  0  0  0  0  0
   -2.3692   -1.7657   -5.7746 H   0  0  0  0  0  0  0  0  0  0  0  0
   -0.5604   -0.2941   -6.7562 H   0  0  0  0  0  0  0  0  0  0  0  0
   -2.1421    3.0591   -4.5414 H   0  0  0  0  0  0  0  0  0  0  0  0
   -3.9241    1.5633   -3.5574 H   0  0  0  0  0  0  0  0  0  0  0  0
   -4.2684   -1.0238   -4.0594 N   0  0  0  0  0  0  0  0  0  0  0  0
   -5.0523   -0.5046   -3.2707 O   0  0  0  0  0  0  0  0  0  0  0  0
   -4.2822   -2.1963   -4.4176 O   0  0  0  0  0  0  0  0  0  0  0  0
   -0.3080    2.2869   -6.2247 N   0  0  0  0  0  0  0  0  0  0  0  0
    0.6471    2.4949   -6.8031 N   0  0  0  0  0  0  0  0  0  0  0  0
    2.1894   -0.0059   -6.2940 S   0  0  0  0  0  0  0  0  0  0  0  0
    3.9328    0.5536   -6.6047 C   0  0  0  0  0  0  0  0  0  0  0  0
    1.4269    0.6685   -7.4431 O   0  0  0  0  0  0  0  0  0  0  0  0
    1.8151    0.5774   -4.9932 O   0  0  0  0  0  0  0  0  0  0  0  0
    2.1894   -1.4635   -6.4359 O   0  0  0  0  0  0  0  0  0  0  0  0
    4.3572    0.1204   -7.7943 F   0  0  0  0  0  0  0  0  0  0  0  0
    3.9851    1.8938   -6.5870 F   0  0  0  0  0  0  0  0  0  0  0  0
    4.7399    0.0771   -5.6521 F   0  0  0  0  0  0  0  0  0  0  0  0
  1  6  2  0  0  0  0
  2  3  2  0  0  0  0
  2  1  1  0  0  0  0
  3  4  1  0  0  0  0
  4  9  1  0  0  0  0
  4  5  2  0  0  0  0
  5 10  1  0  0  0  0
  6  5  1  0  0  0  0
  6 11  1  0  0  0  0
  7  1  1  0  0  0  0
  8  2  1  0  0  0  0
 11 12  2  0  0  0  0
 13 11  2  0  0  0  0
 14  3  1  0  0  0  0
 15 14  2  0  0  0  0
 16 19  1  0  0  0  0
 17 22  1  0  0  0  0
 17 16  1  0  0  0  0
 17 23  1  0  0  0  0
 18 16  2  0  0  0  0
 20 16  2  0  0  0  0
 21 17  1  0  0  0  0
M  RAD  2  15   2  19   2
M  END
