Coordinates from ORCA-job p-NO2-Ph-N2-X-OTf-B3LYPG-6-31G_dp-scan-d09-49-n400
 OpenBabel08281820583D

 23 22  0  0  0  0  0  0  0  0999 V2000
   -2.5573   -0.6958   -5.7007 C   0  0  0  0  0  0  0  0  0  0  0  0
   -1.5491    0.0010   -6.3537 C   0  0  0  0  0  0  0  0  0  0  0  0
   -1.2289    1.2800   -5.8754 C   0  0  0  0  0  0  0  0  0  0  0  0
   -1.8712    1.8867   -4.7911 C   0  0  0  0  0  0  0  0  0  0  0  0
   -2.8631    1.1680   -4.1353 C   0  0  0  0  0  0  0  0  0  0  0  0
   -3.1878   -0.1027   -4.6070 C   0  0  0  0  0  0  0  0  0  0  0  0
   -2.8518   -1.6883   -6.0158 H   0  0  0  0  0  0  0  0  0  0  0  0
   -1.0131   -0.4136   -7.1980 H   0  0  0  0  0  0  0  0  0  0  0  0
   -1.5859    2.8807   -4.4687 H   0  0  0  0  0  0  0  0  0  0  0  0
   -3.3883    1.5722   -3.2799 H   0  0  0  0  0  0  0  0  0  0  0  0
   -4.2614   -0.8561   -3.9163 N   0  0  0  0  0  0  0  0  0  0  0  0
   -4.7950   -0.3131   -2.9538 O   0  0  0  0  0  0  0  0  0  0  0  0
   -4.5407   -1.9645   -4.3609 O   0  0  0  0  0  0  0  0  0  0  0  0
   -0.2467    2.0065   -6.5502 N   0  0  0  0  0  0  0  0  0  0  0  0
    0.6623    2.1672   -7.2046 N   0  0  0  0  0  0  0  0  0  0  0  0
    2.2554   -0.2242   -6.3494 S   0  0  0  0  0  0  0  0  0  0  0  0
    3.7481    0.8820   -6.3106 C   0  0  0  0  0  0  0  0  0  0  0  0
    1.5360    0.2534   -7.6116 O   0  0  0  0  0  0  0  0  0  0  0  0
    1.4926    0.1437   -5.1385 O   0  0  0  0  0  0  0  0  0  0  0  0
    2.7819   -1.5838   -6.4679 O   0  0  0  0  0  0  0  0  0  0  0  0
    4.4870    0.7228   -7.4108 F   0  0  0  0  0  0  0  0  0  0  0  0
    3.3590    2.1710   -6.2394 F   0  0  0  0  0  0  0  0  0  0  0  0
    4.4973    0.6080   -5.2385 F   0  0  0  0  0  0  0  0  0  0  0  0
  1  6  2  0  0  0  0
  2  3  2  0  0  0  0
  2  1  1  0  0  0  0
  3  4  1  0  0  0  0
  4  9  1  0  0  0  0
  4  5  2  0  0  0  0
  5 10  1  0  0  0  0
  6  5  1  0  0  0  0
  6 11  1  0  0  0  0
  7  1  1  0  0  0  0
  8  2  1  0  0  0  0
 11 12  2  0  0  0  0
 13 11  2  0  0  0  0
 14  3  1  0  0  0  0
 15 14  1  0  0  0  0
 16 17  1  0  0  0  0
 16 19  1  0  0  0  0
 17 22  1  0  0  0  0
 17 23  1  0  0  0  0
 18 16  2  0  0  0  0
 20 16  2  0  0  0  0
 21 17  1  0  0  0  0
M  RAD  3  14   2  15   3  19   2
M  END
