Coordinates from ORCA-job p-NO2-Ph-N2-X-OTf-B3LYPG-6-31G_dp-scan-d09-49-n400
 OpenBabel08281820583D

 23 22  0  0  0  0  0  0  0  0999 V2000
   -2.5148   -0.7026   -5.6670 C   0  0  0  0  0  0  0  0  0  0  0  0
   -1.5017    0.0049   -6.3010 C   0  0  0  0  0  0  0  0  0  0  0  0
   -1.2291    1.3012   -5.8403 C   0  0  0  0  0  0  0  0  0  0  0  0
   -1.9212    1.9138   -4.7904 C   0  0  0  0  0  0  0  0  0  0  0  0
   -2.9179    1.1853   -4.1529 C   0  0  0  0  0  0  0  0  0  0  0  0
   -3.1959   -0.1023   -4.6081 C   0  0  0  0  0  0  0  0  0  0  0  0
   -2.7752   -1.7082   -5.9704 H   0  0  0  0  0  0  0  0  0  0  0  0
   -0.9258   -0.4120   -7.1176 H   0  0  0  0  0  0  0  0  0  0  0  0
   -1.6705    2.9211   -4.4804 H   0  0  0  0  0  0  0  0  0  0  0  0
   -3.4816    1.5943   -3.3245 H   0  0  0  0  0  0  0  0  0  0  0  0
   -4.2743   -0.8675   -3.9372 N   0  0  0  0  0  0  0  0  0  0  0  0
   -4.8517   -0.3185   -3.0040 O   0  0  0  0  0  0  0  0  0  0  0  0
   -4.5129   -1.9908   -4.3678 O   0  0  0  0  0  0  0  0  0  0  0  0
   -0.2411    2.0393   -6.4953 N   0  0  0  0  0  0  0  0  0  0  0  0
    0.6746    2.1952   -7.1429 N   0  0  0  0  0  0  0  0  0  0  0  0
    2.2532   -0.2257   -6.3602 S   0  0  0  0  0  0  0  0  0  0  0  0
    3.7661    0.8535   -6.3509 C   0  0  0  0  0  0  0  0  0  0  0  0
    1.5069    0.2817   -7.5968 O   0  0  0  0  0  0  0  0  0  0  0  0
    1.5297    0.1377   -5.1249 O   0  0  0  0  0  0  0  0  0  0  0  0
    2.7498   -1.5929   -6.5145 O   0  0  0  0  0  0  0  0  0  0  0  0
    4.4683    0.6961   -7.4751 F   0  0  0  0  0  0  0  0  0  0  0  0
    3.4030    2.1475   -6.2503 F   0  0  0  0  0  0  0  0  0  0  0  0
    4.5415    0.5499   -5.3058 F   0  0  0  0  0  0  0  0  0  0  0  0
  1  6  2  0  0  0  0
  2  3  2  0  0  0  0
  2  1  1  0  0  0  0
  3  4  1  0  0  0  0
  4  9  1  0  0  0  0
  4  5  2  0  0  0  0
  5 10  1  0  0  0  0
  6  5  1  0  0  0  0
  6 11  1  0  0  0  0
  7  1  1  0  0  0  0
  8  2  1  0  0  0  0
 11 12  2  0  0  0  0
 13 11  2  0  0  0  0
 14  3  1  0  0  0  0
 15 14  1  0  0  0  0
 16 17  1  0  0  0  0
 16 19  1  0  0  0  0
 17 22  1  0  0  0  0
 17 23  1  0  0  0  0
 18 16  2  0  0  0  0
 20 16  2  0  0  0  0
 21 17  1  0  0  0  0
M  RAD  3  14   2  15   3  19   2
M  END
