Coordinates from ORCA-job p-NO2-Ph-N2-X-OTf-B3LYPG-6-31G_dp-scan-d09-49-n400
 OpenBabel08281820573D

 23 22  0  0  0  0  0  0  0  0999 V2000
   -1.9660   -0.7142   -5.0220 C   0  0  0  0  0  0  0  0  0  0  0  0
   -0.9370    0.2136   -5.1728 C   0  0  0  0  0  0  0  0  0  0  0  0
   -1.3005    1.5671   -5.1155 C   0  0  0  0  0  0  0  0  0  0  0  0
   -2.6087    2.0291   -4.9041 C   0  0  0  0  0  0  0  0  0  0  0  0
   -3.6152    1.0853   -4.7671 C   0  0  0  0  0  0  0  0  0  0  0  0
   -3.2700   -0.2663   -4.8284 C   0  0  0  0  0  0  0  0  0  0  0  0
   -1.7610   -1.7774   -5.0547 H   0  0  0  0  0  0  0  0  0  0  0  0
    0.1084   -0.1000   -5.3131 H   0  0  0  0  0  0  0  0  0  0  0  0
   -2.8193    3.0916   -4.8603 H   0  0  0  0  0  0  0  0  0  0  0  0
   -4.6475    1.3692   -4.6099 H   0  0  0  0  0  0  0  0  0  0  0  0
   -4.3514   -1.2712   -4.6719 N   0  0  0  0  0  0  0  0  0  0  0  0
   -5.4892   -0.8437   -4.5008 O   0  0  0  0  0  0  0  0  0  0  0  0
   -4.0292   -2.4526   -4.7232 O   0  0  0  0  0  0  0  0  0  0  0  0
   -0.2960    2.5305   -5.2594 N   0  0  0  0  0  0  0  0  0  0  0  0
    0.6893    2.9942   -5.5548 N   0  0  0  0  0  0  0  0  0  0  0  0
    2.5874    0.6551   -6.0248 S   0  0  0  0  0  0  0  0  0  0  0  0
    3.6975   -0.0239   -7.3541 C   0  0  0  0  0  0  0  0  0  0  0  0
    1.6317    1.5197   -6.8285 O   0  0  0  0  0  0  0  0  0  0  0  0
    3.4490    1.4073   -5.1074 O   0  0  0  0  0  0  0  0  0  0  0  0
    1.8919   -0.5344   -5.4698 O   0  0  0  0  0  0  0  0  0  0  0  0
    2.9792   -0.7047   -8.2550 F   0  0  0  0  0  0  0  0  0  0  0  0
    4.3371    0.9730   -7.9736 F   0  0  0  0  0  0  0  0  0  0  0  0
    4.5984   -0.8462   -6.8070 F   0  0  0  0  0  0  0  0  0  0  0  0
  1  6  2  0  0  0  0
  2  3  2  0  0  0  0
  2  1  1  0  0  0  0
  3  4  1  0  0  0  0
  4  9  1  0  0  0  0
  4  5  2  0  0  0  0
  5 10  1  0  0  0  0
  6  5  1  0  0  0  0
  6 11  1  0  0  0  0
  7  1  1  0  0  0  0
  8  2  1  0  0  0  0
 11 12  2  0  0  0  0
 13 11  2  0  0  0  0
 14  3  1  0  0  0  0
 15 14  1  0  0  0  0
 16 20  2  0  0  0  0
 16 19  1  0  0  0  0
 17 23  1  0  0  0  0
 17 16  1  0  0  0  0
 18 16  2  0  0  0  0
 21 17  1  0  0  0  0
 22 17  1  0  0  0  0
M  RAD  3  14   2  15   3  19   2
M  END
