Coordinates from ORCA-job p-NO2-Ph-N2-X-OTf-B3LYPG-6-31G_dp-scan-d09-49-n400
 OpenBabel08281820573D

 23 22  0  0  0  0  0  0  0  0999 V2000
   -2.2177   -0.7117   -5.4977 C   0  0  0  0  0  0  0  0  0  0  0  0
   -1.2554    0.1390   -6.0310 C   0  0  0  0  0  0  0  0  0  0  0  0
   -1.3227    1.4948   -5.6726 C   0  0  0  0  0  0  0  0  0  0  0  0
   -2.2982    2.0232   -4.8173 C   0  0  0  0  0  0  0  0  0  0  0  0
   -3.2462    1.1582   -4.2877 C   0  0  0  0  0  0  0  0  0  0  0  0
   -3.1862   -0.1889   -4.6431 C   0  0  0  0  0  0  0  0  0  0  0  0
   -2.2184   -1.7691   -5.7308 H   0  0  0  0  0  0  0  0  0  0  0  0
   -0.4718   -0.2256   -6.6857 H   0  0  0  0  0  0  0  0  0  0  0  0
   -2.2984    3.0794   -4.5742 H   0  0  0  0  0  0  0  0  0  0  0  0
   -4.0219    1.5015   -3.6153 H   0  0  0  0  0  0  0  0  0  0  0  0
   -4.2072   -1.1081   -4.0821 N   0  0  0  0  0  0  0  0  0  0  0  0
   -5.0363   -0.6218   -3.3189 O   0  0  0  0  0  0  0  0  0  0  0  0
   -4.1498   -2.2837   -4.4247 O   0  0  0  0  0  0  0  0  0  0  0  0
   -0.3784    2.3866   -6.1920 N   0  0  0  0  0  0  0  0  0  0  0  0
    0.5684    2.6753   -6.7445 N   0  0  0  0  0  0  0  0  0  0  0  0
    2.1539    0.1743   -6.2615 S   0  0  0  0  0  0  0  0  0  0  0  0
    3.9591    0.3775   -6.6502 C   0  0  0  0  0  0  0  0  0  0  0  0
    1.4786    0.9043   -7.4254 O   0  0  0  0  0  0  0  0  0  0  0  0
    1.9347    0.8760   -4.9836 O   0  0  0  0  0  0  0  0  0  0  0  0
    1.8850   -1.2684   -6.3111 O   0  0  0  0  0  0  0  0  0  0  0  0
    4.2473   -0.1940   -7.8229 F   0  0  0  0  0  0  0  0  0  0  0  0
    4.2673    1.6790   -6.7135 F   0  0  0  0  0  0  0  0  0  0  0  0
    4.6938   -0.1966   -5.6925 F   0  0  0  0  0  0  0  0  0  0  0  0
  1  6  2  0  0  0  0
  2  3  2  0  0  0  0
  2  1  1  0  0  0  0
  3  4  1  0  0  0  0
  4  9  1  0  0  0  0
  4  5  2  0  0  0  0
  5 10  1  0  0  0  0
  6  5  1  0  0  0  0
  6 11  1  0  0  0  0
  7  1  1  0  0  0  0
  8  2  1  0  0  0  0
 11 12  2  0  0  0  0
 13 11  2  0  0  0  0
 14  3  1  0  0  0  0
 15 14  1  0  0  0  0
 16 19  1  0  0  0  0
 17 16  1  0  0  0  0
 17 23  1  0  0  0  0
 18 16  2  0  0  0  0
 20 16  2  0  0  0  0
 21 17  1  0  0  0  0
 22 17  1  0  0  0  0
M  RAD  3  14   2  15   3  19   2
M  END
