Coordinates from ORCA-job p-NO2-Ph-N2-X-OTf-B3LYPG-6-31G_dp-scan-d09-49-n400
 OpenBabel08281820573D

 23 22  0  0  0  0  0  0  0  0999 V2000
   -1.9592   -0.7120   -5.0237 C   0  0  0  0  0  0  0  0  0  0  0  0
   -0.9316    0.2177   -5.1731 C   0  0  0  0  0  0  0  0  0  0  0  0
   -1.2982    1.5706   -5.1147 C   0  0  0  0  0  0  0  0  0  0  0  0
   -2.6075    2.0297   -4.9036 C   0  0  0  0  0  0  0  0  0  0  0  0
   -3.6123    1.0839   -4.7680 C   0  0  0  0  0  0  0  0  0  0  0  0
   -3.2643   -0.2668   -4.8303 C   0  0  0  0  0  0  0  0  0  0  0  0
   -1.7523   -1.7747   -5.0572 H   0  0  0  0  0  0  0  0  0  0  0  0
    0.1152   -0.0954   -5.3130 H   0  0  0  0  0  0  0  0  0  0  0  0
   -2.8204    3.0918   -4.8590 H   0  0  0  0  0  0  0  0  0  0  0  0
   -4.6453    1.3656   -4.6112 H   0  0  0  0  0  0  0  0  0  0  0  0
   -4.3438   -1.2741   -4.6753 N   0  0  0  0  0  0  0  0  0  0  0  0
   -5.4827   -0.8490   -4.5052 O   0  0  0  0  0  0  0  0  0  0  0  0
   -4.0193   -2.4548   -4.7283 O   0  0  0  0  0  0  0  0  0  0  0  0
   -0.2960    2.5363   -5.2572 N   0  0  0  0  0  0  0  0  0  0  0  0
    0.6884    3.0023   -5.5516 N   0  0  0  0  0  0  0  0  0  0  0  0
    2.5813    0.6573   -6.0239 S   0  0  0  0  0  0  0  0  0  0  0  0
    3.6880   -0.0297   -7.3519 C   0  0  0  0  0  0  0  0  0  0  0  0
    1.6302    1.5256   -6.8285 O   0  0  0  0  0  0  0  0  0  0  0  0
    3.4468    1.4055   -5.1070 O   0  0  0  0  0  0  0  0  0  0  0  0
    1.8788   -0.5276   -5.4674 O   0  0  0  0  0  0  0  0  0  0  0  0
    2.9661   -0.7077   -8.2521 F   0  0  0  0  0  0  0  0  0  0  0  0
    4.3333    0.9628   -7.9725 F   0  0  0  0  0  0  0  0  0  0  0  0
    4.5842   -0.8563   -6.8033 F   0  0  0  0  0  0  0  0  0  0  0  0
  1  6  2  0  0  0  0
  2  3  2  0  0  0  0
  2  1  1  0  0  0  0
  3  4  1  0  0  0  0
  4  9  1  0  0  0  0
  4  5  2  0  0  0  0
  5 10  1  0  0  0  0
  6  5  1  0  0  0  0
  6 11  1  0  0  0  0
  7  1  1  0  0  0  0
  8  2  1  0  0  0  0
 11 12  2  0  0  0  0
 13 11  2  0  0  0  0
 14  3  1  0  0  0  0
 15 14  1  0  0  0  0
 16 20  2  0  0  0  0
 16 19  1  0  0  0  0
 17 23  1  0  0  0  0
 17 16  1  0  0  0  0
 18 16  2  0  0  0  0
 21 17  1  0  0  0  0
 22 17  1  0  0  0  0
M  RAD  3  14   2  15   3  19   2
M  END
