Coordinates from ORCA-job p-NO2-Ph-N2-X-OTf-B3LYPG-6-31G_dp-scan-d09-49-n400
 OpenBabel08281820573D

 23 22  0  0  0  0  0  0  0  0999 V2000
   -1.6617   -0.5947   -4.9849 C   0  0  0  0  0  0  0  0  0  0  0  0
   -0.6863    0.4230   -5.0004 C   0  0  0  0  0  0  0  0  0  0  0  0
   -1.2466    1.7079   -4.9841 C   0  0  0  0  0  0  0  0  0  0  0  0
   -2.6165    2.0611   -4.9533 C   0  0  0  0  0  0  0  0  0  0  0  0
   -3.5202    1.0195   -4.9392 C   0  0  0  0  0  0  0  0  0  0  0  0
   -3.0163   -0.2910   -4.9538 C   0  0  0  0  0  0  0  0  0  0  0  0
   -1.3631   -1.6374   -4.9981 H   0  0  0  0  0  0  0  0  0  0  0  0
    0.6698    0.1325   -5.0671 H   0  0  0  0  0  0  0  0  0  0  0  0
   -2.9395    3.0968   -4.9446 H   0  0  0  0  0  0  0  0  0  0  0  0
   -4.5893    1.1854   -4.9171 H   0  0  0  0  0  0  0  0  0  0  0  0
   -4.0033   -1.4034   -4.9345 N   0  0  0  0  0  0  0  0  0  0  0  0
   -5.1927   -1.0954   -4.9134 O   0  0  0  0  0  0  0  0  0  0  0  0
   -3.5634   -2.5470   -4.9408 O   0  0  0  0  0  0  0  0  0  0  0  0
   -0.3438    2.7713   -4.9878 N   0  0  0  0  0  0  0  0  0  0  0  0
    0.4098    3.5900   -4.9957 N   0  0  0  0  0  0  0  0  0  0  0  0
    2.7018    0.7360   -5.9263 S   0  0  0  0  0  0  0  0  0  0  0  0
    2.9770   -0.2909   -7.4497 C   0  0  0  0  0  0  0  0  0  0  0  0
    1.9583    1.9220   -6.3952 O   0  0  0  0  0  0  0  0  0  0  0  0
    4.0090    0.9161   -5.3083 O   0  0  0  0  0  0  0  0  0  0  0  0
    1.7754   -0.1837   -5.1052 O   0  0  0  0  0  0  0  0  0  0  0  0
    1.7992   -0.5764   -8.0234 F   0  0  0  0  0  0  0  0  0  0  0  0
    3.7278    0.3911   -8.3191 F   0  0  0  0  0  0  0  0  0  0  0  0
    3.5941   -1.4317   -7.1363 F   0  0  0  0  0  0  0  0  0  0  0  0
  1  6  1  0  0  0  0
  2  1  2  0  0  0  0
  2  3  1  0  0  0  0
  3  4  2  0  0  0  0
  4  9  1  0  0  0  0
  4  5  1  0  0  0  0
  5 10  1  0  0  0  0
  6  5  2  0  0  0  0
  6 11  1  0  0  0  0
  7  1  1  0  0  0  0
 11 12  2  0  0  0  0
 13 11  2  0  0  0  0
 14  3  1  0  0  0  0
 15 14  1  0  0  0  0
 16 19  2  0  0  0  0
 16 20  1  0  0  0  0
 17 23  1  0  0  0  0
 17 16  1  0  0  0  0
 18 16  2  0  0  0  0
 20  8  1  0  0  0  0
 21 17  1  0  0  0  0
 22 17  1  0  0  0  0
M  RAD  3   2   2  14   2  15   3
M  END
