Coordinates from ORCA-job p-NO2-Ph-N2-X-OTf-B3LYPG-6-31G_dp-scan-d09-49-n400
 OpenBabel08281820573D

 23 22  0  0  0  0  0  0  0  0999 V2000
   -2.4077   -0.7152   -5.5739 C   0  0  0  0  0  0  0  0  0  0  0  0
   -1.3829    0.0315   -6.1423 C   0  0  0  0  0  0  0  0  0  0  0  0
   -1.2446    1.3644   -5.7266 C   0  0  0  0  0  0  0  0  0  0  0  0
   -2.0775    1.9715   -4.7800 C   0  0  0  0  0  0  0  0  0  0  0  0
   -3.0871    1.2070   -4.2087 C   0  0  0  0  0  0  0  0  0  0  0  0
   -3.2320   -0.1164   -4.6220 C   0  0  0  0  0  0  0  0  0  0  0  0
   -2.5699   -1.7493   -5.8493 H   0  0  0  0  0  0  0  0  0  0  0  0
   -0.6991   -0.3779   -6.8767 H   0  0  0  0  0  0  0  0  0  0  0  0
   -1.9243    3.0067   -4.4988 H   0  0  0  0  0  0  0  0  0  0  0  0
   -3.7589    1.6129   -3.4634 H   0  0  0  0  0  0  0  0  0  0  0  0
   -4.3217   -0.9244   -4.0216 N   0  0  0  0  0  0  0  0  0  0  0  0
   -5.0242   -0.3759   -3.1781 O   0  0  0  0  0  0  0  0  0  0  0  0
   -4.4428   -2.0793   -4.4154 O   0  0  0  0  0  0  0  0  0  0  0  0
   -0.2410    2.1476   -6.3059 N   0  0  0  0  0  0  0  0  0  0  0  0
    0.7039    2.2992   -6.9164 N   0  0  0  0  0  0  0  0  0  0  0  0
    2.2524   -0.1681   -6.3350 S   0  0  0  0  0  0  0  0  0  0  0  0
    3.8615    0.7422   -6.5189 C   0  0  0  0  0  0  0  0  0  0  0  0
    1.4295    0.4113   -7.4947 O   0  0  0  0  0  0  0  0  0  0  0  0
    1.7102    0.2707   -5.0360 O   0  0  0  0  0  0  0  0  0  0  0  0
    2.5650   -1.5832   -6.5333 O   0  0  0  0  0  0  0  0  0  0  0  0
    4.4248    0.4688   -7.6980 F   0  0  0  0  0  0  0  0  0  0  0  0
    3.6443    2.0672   -6.4419 F   0  0  0  0  0  0  0  0  0  0  0  0
    4.7013    0.3897   -5.5412 F   0  0  0  0  0  0  0  0  0  0  0  0
  1  6  2  0  0  0  0
  2  3  2  0  0  0  0
  2  1  1  0  0  0  0
  3  4  1  0  0  0  0
  4  9  1  0  0  0  0
  4  5  2  0  0  0  0
  5 10  1  0  0  0  0
  6  5  1  0  0  0  0
  6 11  1  0  0  0  0
  7  1  1  0  0  0  0
  8  2  1  0  0  0  0
 11 12  2  0  0  0  0
 13 11  2  0  0  0  0
 14  3  1  0  0  0  0
 15 14  2  0  0  0  0
 16 19  1  0  0  0  0
 17 22  1  0  0  0  0
 17 16  1  0  0  0  0
 17 23  1  0  0  0  0
 18 16  2  0  0  0  0
 20 16  2  0  0  0  0
 21 17  1  0  0  0  0
M  RAD  2  15   2  19   2
M  END
