Coordinates from ORCA-job p-NO2-Ph-N2-X-OTf-B3LYPG-6-31G_dp-scan-d09-49-n400
 OpenBabel08281820583D

 23 22  0  0  0  0  0  0  0  0999 V2000
   -2.5053   -0.7037   -5.6600 C   0  0  0  0  0  0  0  0  0  0  0  0
   -1.4918    0.0064   -6.2904 C   0  0  0  0  0  0  0  0  0  0  0  0
   -1.2294    1.3063   -5.8336 C   0  0  0  0  0  0  0  0  0  0  0  0
   -1.9317    1.9195   -4.7908 C   0  0  0  0  0  0  0  0  0  0  0  0
   -2.9288    1.1885   -4.1568 C   0  0  0  0  0  0  0  0  0  0  0  0
   -3.1967   -0.1026   -4.6085 C   0  0  0  0  0  0  0  0  0  0  0  0
   -2.7583   -1.7121   -5.9608 H   0  0  0  0  0  0  0  0  0  0  0  0
   -0.9078   -0.4105   -7.1013 H   0  0  0  0  0  0  0  0  0  0  0  0
   -1.6884    2.9295   -4.4836 H   0  0  0  0  0  0  0  0  0  0  0  0
   -3.5003    1.5980   -3.3340 H   0  0  0  0  0  0  0  0  0  0  0  0
   -4.2755   -0.8708   -3.9413 N   0  0  0  0  0  0  0  0  0  0  0  0
   -4.8614   -0.3213   -3.0137 O   0  0  0  0  0  0  0  0  0  0  0  0
   -4.5056   -1.9969   -4.3690 O   0  0  0  0  0  0  0  0  0  0  0  0
   -0.2405    2.0471   -6.4845 N   0  0  0  0  0  0  0  0  0  0  0  0
    0.6766    2.2025   -7.1305 N   0  0  0  0  0  0  0  0  0  0  0  0
    2.2511   -0.2249   -6.3622 S   0  0  0  0  0  0  0  0  0  0  0  0
    3.7696    0.8464   -6.3587 C   0  0  0  0  0  0  0  0  0  0  0  0
    1.5007    0.2893   -7.5937 O   0  0  0  0  0  0  0  0  0  0  0  0
    1.5361    0.1391   -5.1223 O   0  0  0  0  0  0  0  0  0  0  0  0
    2.7389   -1.5944   -6.5231 O   0  0  0  0  0  0  0  0  0  0  0  0
    4.4654    0.6869   -7.4867 F   0  0  0  0  0  0  0  0  0  0  0  0
    3.4138    2.1419   -6.2545 F   0  0  0  0  0  0  0  0  0  0  0  0
    4.5486    0.5370   -5.3180 F   0  0  0  0  0  0  0  0  0  0  0  0
  1  6  2  0  0  0  0
  2  3  2  0  0  0  0
  2  1  1  0  0  0  0
  3  4  1  0  0  0  0
  4  9  1  0  0  0  0
  4  5  2  0  0  0  0
  5 10  1  0  0  0  0
  6  5  1  0  0  0  0
  6 11  1  0  0  0  0
  7  1  1  0  0  0  0
  8  2  1  0  0  0  0
 11 12  2  0  0  0  0
 13 11  2  0  0  0  0
 14  3  1  0  0  0  0
 15 14  1  0  0  0  0
 16 17  1  0  0  0  0
 16 19  1  0  0  0  0
 17 22  1  0  0  0  0
 17 23  1  0  0  0  0
 18 16  2  0  0  0  0
 20 16  2  0  0  0  0
 21 17  1  0  0  0  0
M  RAD  3  14   2  15   3  19   2
M  END
