Coordinates from ORCA-job p-NO2-Ph-N2-X-OTf-B3LYPG-6-31G_dp-scan-d09-49-n400
 OpenBabel08281820573D

 23 22  0  0  0  0  0  0  0  0999 V2000
   -1.9246   -0.7019   -5.0325 C   0  0  0  0  0  0  0  0  0  0  0  0
   -0.9082    0.2432   -5.1716 C   0  0  0  0  0  0  0  0  0  0  0  0
   -1.3015    1.5879   -5.1077 C   0  0  0  0  0  0  0  0  0  0  0  0
   -2.6186    2.0300   -4.9033 C   0  0  0  0  0  0  0  0  0  0  0  0
   -3.6076    1.0677   -4.7760 C   0  0  0  0  0  0  0  0  0  0  0  0
   -3.2366   -0.2778   -4.8427 C   0  0  0  0  0  0  0  0  0  0  0  0
   -1.7021   -1.7615   -5.0704 H   0  0  0  0  0  0  0  0  0  0  0  0
    0.1575   -0.0490   -5.3086 H   0  0  0  0  0  0  0  0  0  0  0  0
   -2.8484    3.0885   -4.8565 H   0  0  0  0  0  0  0  0  0  0  0  0
   -4.6459    1.3314   -4.6229 H   0  0  0  0  0  0  0  0  0  0  0  0
   -4.3019   -1.3021   -4.6962 N   0  0  0  0  0  0  0  0  0  0  0  0
   -5.4476   -0.8947   -4.5279 O   0  0  0  0  0  0  0  0  0  0  0  0
   -3.9599   -2.4774   -4.7544 O   0  0  0  0  0  0  0  0  0  0  0  0
   -0.3091    2.5631   -5.2418 N   0  0  0  0  0  0  0  0  0  0  0  0
    0.6535    3.0830   -5.5036 N   0  0  0  0  0  0  0  0  0  0  0  0
    2.5885    0.7044   -6.0195 S   0  0  0  0  0  0  0  0  0  0  0  0
    3.6246   -0.0820   -7.3485 C   0  0  0  0  0  0  0  0  0  0  0  0
    1.7027    1.6375   -6.8141 O   0  0  0  0  0  0  0  0  0  0  0  0
    3.5221    1.3710   -5.1073 O   0  0  0  0  0  0  0  0  0  0  0  0
    1.8006   -0.4268   -5.4514 O   0  0  0  0  0  0  0  0  0  0  0  0
    2.8431   -0.7045   -8.2397 F   0  0  0  0  0  0  0  0  0  0  0  0
    4.3460    0.8483   -7.9814 F   0  0  0  0  0  0  0  0  0  0  0  0
    4.4526   -0.9772   -6.8003 F   0  0  0  0  0  0  0  0  0  0  0  0
  1  6  2  0  0  0  0
  2  3  2  0  0  0  0
  2  1  1  0  0  0  0
  3  4  1  0  0  0  0
  4  9  1  0  0  0  0
  4  5  2  0  0  0  0
  5 10  1  0  0  0  0
  6  5  1  0  0  0  0
  6 11  1  0  0  0  0
  7  1  1  0  0  0  0
  8  2  1  0  0  0  0
 11 12  2  0  0  0  0
 13 11  2  0  0  0  0
 14  3  1  0  0  0  0
 15 14  1  0  0  0  0
 16 20  2  0  0  0  0
 16 19  1  0  0  0  0
 17 23  1  0  0  0  0
 17 16  1  0  0  0  0
 18 16  2  0  0  0  0
 21 17  1  0  0  0  0
 22 17  1  0  0  0  0
M  RAD  3  14   2  15   3  19   2
M  END
