Coordinates from ORCA-job p-NO2-Ph-N2-X-OTf-B3LYPG-6-31G_dp-scan-d09-49-n400
 OpenBabel08281820583D

 23 22  0  0  0  0  0  0  0  0999 V2000
   -2.6043   -0.6864   -5.7373 C   0  0  0  0  0  0  0  0  0  0  0  0
   -1.6029   -0.0002   -6.4114 C   0  0  0  0  0  0  0  0  0  0  0  0
   -1.2301    1.2574   -5.9150 C   0  0  0  0  0  0  0  0  0  0  0  0
   -1.8155    1.8546   -4.7939 C   0  0  0  0  0  0  0  0  0  0  0  0
   -2.8007    1.1455   -4.1182 C   0  0  0  0  0  0  0  0  0  0  0  0
   -3.1775   -0.1044   -4.6066 C   0  0  0  0  0  0  0  0  0  0  0  0
   -2.9368   -1.6629   -6.0643 H   0  0  0  0  0  0  0  0  0  0  0  0
   -1.1116   -0.4097   -7.2847 H   0  0  0  0  0  0  0  0  0  0  0  0
   -1.4913    2.8321   -4.4584 H   0  0  0  0  0  0  0  0  0  0  0  0
   -3.2818    1.5419   -3.2338 H   0  0  0  0  0  0  0  0  0  0  0  0
   -4.2440   -0.8462   -3.8939 N   0  0  0  0  0  0  0  0  0  0  0  0
   -4.7240   -0.3148   -2.8972 O   0  0  0  0  0  0  0  0  0  0  0  0
   -4.5722   -1.9342   -4.3556 O   0  0  0  0  0  0  0  0  0  0  0  0
   -0.2546    1.9714   -6.6110 N   0  0  0  0  0  0  0  0  0  0  0  0
    0.6469    2.1397   -7.2719 N   0  0  0  0  0  0  0  0  0  0  0  0
    2.2548   -0.2182   -6.3346 S   0  0  0  0  0  0  0  0  0  0  0  0
    3.7290    0.9109   -6.2670 C   0  0  0  0  0  0  0  0  0  0  0  0
    1.5691    0.2267   -7.6248 O   0  0  0  0  0  0  0  0  0  0  0  0
    1.4510    0.1607   -5.1530 O   0  0  0  0  0  0  0  0  0  0  0  0
    2.8050   -1.5716   -6.4085 O   0  0  0  0  0  0  0  0  0  0  0  0
    4.5106    0.7397   -7.3354 F   0  0  0  0  0  0  0  0  0  0  0  0
    3.3180    2.1954   -6.2395 F   0  0  0  0  0  0  0  0  0  0  0  0
    4.4423    0.6736   -5.1622 F   0  0  0  0  0  0  0  0  0  0  0  0
  1  6  2  0  0  0  0
  2  3  2  0  0  0  0
  2  1  1  0  0  0  0
  3  4  1  0  0  0  0
  4  9  1  0  0  0  0
  4  5  2  0  0  0  0
  5 10  1  0  0  0  0
  6  5  1  0  0  0  0
  6 11  1  0  0  0  0
  7  1  1  0  0  0  0
  8  2  1  0  0  0  0
 11 12  2  0  0  0  0
 13 11  2  0  0  0  0
 14  3  1  0  0  0  0
 15 14  1  0  0  0  0
 16 17  1  0  0  0  0
 16 19  1  0  0  0  0
 17 22  1  0  0  0  0
 17 23  1  0  0  0  0
 18 16  2  0  0  0  0
 20 16  2  0  0  0  0
 21 17  1  0  0  0  0
M  RAD  3  14   2  15   3  19   2
M  END
