Coordinates from ORCA-job p-NO2-Ph-N2-X-OTf-B3LYPG-6-31G_dp-scan-d09-49-n400
 OpenBabel08281820573D

 23 22  0  0  0  0  0  0  0  0999 V2000
   -1.6649   -0.5970   -4.9865 C   0  0  0  0  0  0  0  0  0  0  0  0
   -0.6892    0.4196   -5.0042 C   0  0  0  0  0  0  0  0  0  0  0  0
   -1.2459    1.7061   -4.9857 C   0  0  0  0  0  0  0  0  0  0  0  0
   -2.6151    2.0605   -4.9506 C   0  0  0  0  0  0  0  0  0  0  0  0
   -3.5204    1.0201   -4.9344 C   0  0  0  0  0  0  0  0  0  0  0  0
   -3.0189   -0.2911   -4.9512 C   0  0  0  0  0  0  0  0  0  0  0  0
   -1.3671   -1.6399   -5.0013 H   0  0  0  0  0  0  0  0  0  0  0  0
    0.6526    0.1319   -5.0733 H   0  0  0  0  0  0  0  0  0  0  0  0
   -2.9367    3.0966   -4.9404 H   0  0  0  0  0  0  0  0  0  0  0  0
   -4.5892    1.1879   -4.9091 H   0  0  0  0  0  0  0  0  0  0  0  0
   -4.0076   -1.4019   -4.9296 N   0  0  0  0  0  0  0  0  0  0  0  0
   -5.1963   -1.0920   -4.9051 O   0  0  0  0  0  0  0  0  0  0  0  0
   -3.5692   -2.5461   -4.9375 O   0  0  0  0  0  0  0  0  0  0  0  0
   -0.3412    2.7676   -4.9913 N   0  0  0  0  0  0  0  0  0  0  0  0
    0.4148    3.5839   -5.0013 N   0  0  0  0  0  0  0  0  0  0  0  0
    2.6956    0.7358   -5.9282 S   0  0  0  0  0  0  0  0  0  0  0  0
    2.9895   -0.2888   -7.4494 C   0  0  0  0  0  0  0  0  0  0  0  0
    1.9500    1.9185   -6.4045 O   0  0  0  0  0  0  0  0  0  0  0  0
    3.9977    0.9261   -5.3016 O   0  0  0  0  0  0  0  0  0  0  0  0
    1.7679   -0.1866   -5.1155 O   0  0  0  0  0  0  0  0  0  0  0  0
    1.8186   -0.5789   -8.0350 F   0  0  0  0  0  0  0  0  0  0  0  0
    3.7461    0.3964   -8.3114 F   0  0  0  0  0  0  0  0  0  0  0  0
    3.6082   -1.4275   -7.1308 F   0  0  0  0  0  0  0  0  0  0  0  0
  1  6  1  0  0  0  0
  2  1  2  0  0  0  0
  2  3  1  0  0  0  0
  3  4  2  0  0  0  0
  4  9  1  0  0  0  0
  4  5  1  0  0  0  0
  5 10  1  0  0  0  0
  6  5  2  0  0  0  0
  6 11  1  0  0  0  0
  7  1  1  0  0  0  0
 11 12  2  0  0  0  0
 13 11  2  0  0  0  0
 14  3  1  0  0  0  0
 15 14  1  0  0  0  0
 16 19  2  0  0  0  0
 16 20  1  0  0  0  0
 17 23  1  0  0  0  0
 17 16  1  0  0  0  0
 18 16  2  0  0  0  0
 20  8  1  0  0  0  0
 21 17  1  0  0  0  0
 22 17  1  0  0  0  0
M  RAD  3   2   2  14   2  15   3
M  END
