Coordinates from ORCA-job p-NO2-Ph-N2-X-OTf-B3LYPG-6-31G_dp-scan-d09-49-n400
 OpenBabel08281820573D

 23 22  0  0  0  0  0  0  0  0999 V2000
   -2.4258   -0.7131   -5.5924 C   0  0  0  0  0  0  0  0  0  0  0  0
   -1.4037    0.0256   -6.1754 C   0  0  0  0  0  0  0  0  0  0  0  0
   -1.2400    1.3529   -5.7515 C   0  0  0  0  0  0  0  0  0  0  0  0
   -2.0456    1.9629   -4.7836 C   0  0  0  0  0  0  0  0  0  0  0  0
   -3.0519    1.2056   -4.1970 C   0  0  0  0  0  0  0  0  0  0  0  0
   -3.2221   -0.1123   -4.6180 C   0  0  0  0  0  0  0  0  0  0  0  0
   -2.6067   -1.7427   -5.8727 H   0  0  0  0  0  0  0  0  0  0  0  0
   -0.7402   -0.3863   -6.9265 H   0  0  0  0  0  0  0  0  0  0  0  0
   -1.8741    2.9938   -4.4977 H   0  0  0  0  0  0  0  0  0  0  0  0
   -3.7026    1.6134   -3.4342 H   0  0  0  0  0  0  0  0  0  0  0  0
   -4.3090   -0.9118   -4.0015 N   0  0  0  0  0  0  0  0  0  0  0  0
   -4.9851   -0.3628   -3.1371 O   0  0  0  0  0  0  0  0  0  0  0  0
   -4.4543   -2.0609   -4.4041 O   0  0  0  0  0  0  0  0  0  0  0  0
   -0.2398    2.1267   -6.3481 N   0  0  0  0  0  0  0  0  0  0  0  0
    0.6984    2.2775   -6.9680 N   0  0  0  0  0  0  0  0  0  0  0  0
    2.2484   -0.1861   -6.3460 S   0  0  0  0  0  0  0  0  0  0  0  0
    3.8379    0.7665   -6.4790 C   0  0  0  0  0  0  0  0  0  0  0  0
    1.4415    0.3811   -7.5216 O   0  0  0  0  0  0  0  0  0  0  0  0
    1.6625    0.2301   -5.0581 O   0  0  0  0  0  0  0  0  0  0  0  0
    2.6057   -1.5907   -6.5433 O   0  0  0  0  0  0  0  0  0  0  0  0
    4.4372    0.5245   -7.6472 F   0  0  0  0  0  0  0  0  0  0  0  0
    3.5859    2.0852   -6.3897 F   0  0  0  0  0  0  0  0  0  0  0  0
    4.6627    0.4223   -5.4856 F   0  0  0  0  0  0  0  0  0  0  0  0
  1  6  2  0  0  0  0
  2  3  2  0  0  0  0
  2  1  1  0  0  0  0
  3  4  1  0  0  0  0
  4  9  1  0  0  0  0
  4  5  2  0  0  0  0
  5 10  1  0  0  0  0
  6  5  1  0  0  0  0
  6 11  1  0  0  0  0
  7  1  1  0  0  0  0
  8  2  1  0  0  0  0
 11 12  2  0  0  0  0
 13 11  2  0  0  0  0
 14  3  1  0  0  0  0
 15 14  2  0  0  0  0
 16 19  1  0  0  0  0
 17 22  1  0  0  0  0
 17 16  1  0  0  0  0
 17 23  1  0  0  0  0
 18 16  2  0  0  0  0
 20 16  2  0  0  0  0
 21 17  1  0  0  0  0
M  RAD  2  15   2  19   2
M  END
