Coordinates from ORCA-job p-NO2-Ph-N2-X-OTf-B3LYPG-6-31G_dp-scan-d09-49-n400
 OpenBabel08281820583D

 23 22  0  0  0  0  0  0  0  0999 V2000
   -2.6694   -0.6735   -5.7786 C   0  0  0  0  0  0  0  0  0  0  0  0
   -1.6769   -0.0039   -6.4817 C   0  0  0  0  0  0  0  0  0  0  0  0
   -1.2318    1.2226   -5.9678 C   0  0  0  0  0  0  0  0  0  0  0  0
   -1.7390    1.8066   -4.8022 C   0  0  0  0  0  0  0  0  0  0  0  0
   -2.7170    1.1136   -4.1004 C   0  0  0  0  0  0  0  0  0  0  0  0
   -3.1650   -0.1062   -4.6048 C   0  0  0  0  0  0  0  0  0  0  0  0
   -3.0540   -1.6269   -6.1167 H   0  0  0  0  0  0  0  0  0  0  0  0
   -1.2474   -0.4062   -7.3902 H   0  0  0  0  0  0  0  0  0  0  0  0
   -1.3598    2.7591   -4.4531 H   0  0  0  0  0  0  0  0  0  0  0  0
   -3.1383    1.5001   -3.1819 H   0  0  0  0  0  0  0  0  0  0  0  0
   -4.2230   -0.8296   -3.8627 N   0  0  0  0  0  0  0  0  0  0  0  0
   -4.6357   -0.3105   -2.8300 O   0  0  0  0  0  0  0  0  0  0  0  0
   -4.6125   -1.8917   -4.3372 O   0  0  0  0  0  0  0  0  0  0  0  0
   -0.2646    1.9172   -6.6915 N   0  0  0  0  0  0  0  0  0  0  0  0
    0.6242    2.1055   -7.3610 N   0  0  0  0  0  0  0  0  0  0  0  0
    2.2573   -0.2086   -6.3239 S   0  0  0  0  0  0  0  0  0  0  0  0
    3.7036    0.9512   -6.2046 C   0  0  0  0  0  0  0  0  0  0  0  0
    1.6273    0.2008   -7.6498 O   0  0  0  0  0  0  0  0  0  0  0  0
    1.3930    0.1771   -5.1861 O   0  0  0  0  0  0  0  0  0  0  0  0
    2.8355   -1.5522   -6.3404 O   0  0  0  0  0  0  0  0  0  0  0  0
    4.5415    0.7782   -7.2294 F   0  0  0  0  0  0  0  0  0  0  0  0
    3.2647    2.2273   -6.2228 F   0  0  0  0  0  0  0  0  0  0  0  0
    4.3665    0.7511   -5.0615 F   0  0  0  0  0  0  0  0  0  0  0  0
  1  6  2  0  0  0  0
  2  3  2  0  0  0  0
  2  1  1  0  0  0  0
  3  4  1  0  0  0  0
  4  9  1  0  0  0  0
  4  5  2  0  0  0  0
  5 10  1  0  0  0  0
  6  5  1  0  0  0  0
  6 11  1  0  0  0  0
  7  1  1  0  0  0  0
  8  2  1  0  0  0  0
 11 12  2  0  0  0  0
 13 11  2  0  0  0  0
 14  3  1  0  0  0  0
 15 14  1  0  0  0  0
 16 17  1  0  0  0  0
 16 19  1  0  0  0  0
 17 23  1  0  0  0  0
 18 16  2  0  0  0  0
 20 16  2  0  0  0  0
 21 17  1  0  0  0  0
 22 17  1  0  0  0  0
M  RAD  3  14   2  15   3  19   2
M  END
