Coordinates from ORCA-job p-NO2-Ph-N2-X-OTf-B3LYPG-6-31G_dp-scan-d09-49-n400
 OpenBabel08281820583D

 23 22  0  0  0  0  0  0  0  0999 V2000
   -2.5085   -0.7034   -5.6621 C   0  0  0  0  0  0  0  0  0  0  0  0
   -1.4949    0.0058   -6.2935 C   0  0  0  0  0  0  0  0  0  0  0  0
   -1.2293    1.3045   -5.8355 C   0  0  0  0  0  0  0  0  0  0  0  0
   -1.9285    1.9176   -4.7905 C   0  0  0  0  0  0  0  0  0  0  0  0
   -2.9256    1.1875   -4.1556 C   0  0  0  0  0  0  0  0  0  0  0  0
   -3.1967   -0.1025   -4.6084 C   0  0  0  0  0  0  0  0  0  0  0  0
   -2.7638   -1.7109   -5.9638 H   0  0  0  0  0  0  0  0  0  0  0  0
   -0.9134   -0.4111   -7.1061 H   0  0  0  0  0  0  0  0  0  0  0  0
   -1.6829    2.9268   -4.4824 H   0  0  0  0  0  0  0  0  0  0  0  0
   -3.4948    1.5969   -3.3311 H   0  0  0  0  0  0  0  0  0  0  0  0
   -4.2756   -0.8696   -3.9402 N   0  0  0  0  0  0  0  0  0  0  0  0
   -4.8590   -0.3202   -3.0109 O   0  0  0  0  0  0  0  0  0  0  0  0
   -4.5085   -1.9948   -4.3689 O   0  0  0  0  0  0  0  0  0  0  0  0
   -0.2406    2.0444   -6.4876 N   0  0  0  0  0  0  0  0  0  0  0  0
    0.6761    2.1999   -7.1340 N   0  0  0  0  0  0  0  0  0  0  0  0
    2.2522   -0.2252   -6.3615 S   0  0  0  0  0  0  0  0  0  0  0  0
    3.7688    0.8488   -6.3566 C   0  0  0  0  0  0  0  0  0  0  0  0
    1.5027    0.2867   -7.5945 O   0  0  0  0  0  0  0  0  0  0  0  0
    1.5347    0.1384   -5.1229 O   0  0  0  0  0  0  0  0  0  0  0  0
    2.7431   -1.5939   -6.5204 O   0  0  0  0  0  0  0  0  0  0  0  0
    4.4663    0.6902   -7.4837 F   0  0  0  0  0  0  0  0  0  0  0  0
    3.4105    2.1438   -6.2533 F   0  0  0  0  0  0  0  0  0  0  0  0
    4.5471    0.5413   -5.3148 F   0  0  0  0  0  0  0  0  0  0  0  0
  1  6  2  0  0  0  0
  2  3  2  0  0  0  0
  2  1  1  0  0  0  0
  3  4  1  0  0  0  0
  4  9  1  0  0  0  0
  4  5  2  0  0  0  0
  5 10  1  0  0  0  0
  6  5  1  0  0  0  0
  6 11  1  0  0  0  0
  7  1  1  0  0  0  0
  8  2  1  0  0  0  0
 11 12  2  0  0  0  0
 13 11  2  0  0  0  0
 14  3  1  0  0  0  0
 15 14  1  0  0  0  0
 16 17  1  0  0  0  0
 16 19  1  0  0  0  0
 17 22  1  0  0  0  0
 17 23  1  0  0  0  0
 18 16  2  0  0  0  0
 20 16  2  0  0  0  0
 21 17  1  0  0  0  0
M  RAD  3  14   2  15   3  19   2
M  END
