Coordinates from ORCA-job p-NO2-Ph-N2-X-OTf-B3LYPG-6-31G_dp-scan-d09-49-n400
 OpenBabel08281820583D

 23 22  0  0  0  0  0  0  0  0999 V2000
   -2.4349   -0.7118   -5.6023 C   0  0  0  0  0  0  0  0  0  0  0  0
   -1.4148    0.0233   -6.1934 C   0  0  0  0  0  0  0  0  0  0  0  0
   -1.2381    1.3475   -5.7653 C   0  0  0  0  0  0  0  0  0  0  0  0
   -2.0291    1.9584   -4.7862 C   0  0  0  0  0  0  0  0  0  0  0  0
   -3.0331    1.2045   -4.1914 C   0  0  0  0  0  0  0  0  0  0  0  0
   -3.2162   -0.1105   -4.6161 C   0  0  0  0  0  0  0  0  0  0  0  0
   -2.6253   -1.7390   -5.8849 H   0  0  0  0  0  0  0  0  0  0  0  0
   -0.7624   -0.3895   -6.9534 H   0  0  0  0  0  0  0  0  0  0  0  0
   -1.8481    2.9871   -4.4979 H   0  0  0  0  0  0  0  0  0  0  0  0
   -3.6724    1.6128   -3.4193 H   0  0  0  0  0  0  0  0  0  0  0  0
   -4.3006   -0.9061   -3.9905 N   0  0  0  0  0  0  0  0  0  0  0  0
   -4.9628   -0.3571   -3.1154 O   0  0  0  0  0  0  0  0  0  0  0  0
   -4.4578   -2.0524   -4.3967 O   0  0  0  0  0  0  0  0  0  0  0  0
   -0.2401    2.1166   -6.3709 N   0  0  0  0  0  0  0  0  0  0  0  0
    0.6945    2.2680   -6.9955 N   0  0  0  0  0  0  0  0  0  0  0  0
    2.2453   -0.1943   -6.3517 S   0  0  0  0  0  0  0  0  0  0  0  0
    3.8252    0.7776   -6.4572 C   0  0  0  0  0  0  0  0  0  0  0  0
    1.4490    0.3678   -7.5363 O   0  0  0  0  0  0  0  0  0  0  0  0
    1.6365    0.2110   -5.0705 O   0  0  0  0  0  0  0  0  0  0  0  0
    2.6238   -1.5936   -6.5470 O   0  0  0  0  0  0  0  0  0  0  0  0
    4.4428    0.5514   -7.6191 F   0  0  0  0  0  0  0  0  0  0  0  0
    3.5568    2.0930   -6.3619 F   0  0  0  0  0  0  0  0  0  0  0  0
    4.6412    0.4364   -5.4555 F   0  0  0  0  0  0  0  0  0  0  0  0
  1  6  2  0  0  0  0
  2  3  2  0  0  0  0
  2  1  1  0  0  0  0
  3  4  1  0  0  0  0
  4  9  1  0  0  0  0
  4  5  2  0  0  0  0
  5 10  1  0  0  0  0
  6  5  1  0  0  0  0
  6 11  1  0  0  0  0
  7  1  1  0  0  0  0
  8  2  1  0  0  0  0
 11 12  2  0  0  0  0
 13 11  2  0  0  0  0
 14  3  1  0  0  0  0
 15 14  2  0  0  0  0
 16 19  1  0  0  0  0
 17 22  1  0  0  0  0
 17 16  1  0  0  0  0
 17 23  1  0  0  0  0
 18 16  2  0  0  0  0
 20 16  2  0  0  0  0
 21 17  1  0  0  0  0
M  RAD  2  15   2  19   2
M  END
