Coordinates from ORCA-job p-NO2-Ph-N2-X-OTf-B3LYPG-6-31G_dp-scan-d09-49-n400
 OpenBabel08281820583D

 23 22  0  0  0  0  0  0  0  0999 V2000
   -2.6145   -0.6842   -5.7446 C   0  0  0  0  0  0  0  0  0  0  0  0
   -1.6145   -0.0004   -6.4230 C   0  0  0  0  0  0  0  0  0  0  0  0
   -1.2304    1.2524   -5.9232 C   0  0  0  0  0  0  0  0  0  0  0  0
   -1.8037    1.8473   -4.7945 C   0  0  0  0  0  0  0  0  0  0  0  0
   -2.7877    1.1404   -4.1150 C   0  0  0  0  0  0  0  0  0  0  0  0
   -3.1755   -0.1048   -4.6066 C   0  0  0  0  0  0  0  0  0  0  0  0
   -2.9551   -1.6572   -6.0740 H   0  0  0  0  0  0  0  0  0  0  0  0
   -1.1326   -0.4086   -7.3022 H   0  0  0  0  0  0  0  0  0  0  0  0
   -1.4710    2.8211   -4.4565 H   0  0  0  0  0  0  0  0  0  0  0  0
   -3.2594    1.5351   -3.2247 H   0  0  0  0  0  0  0  0  0  0  0  0
   -4.2408   -0.8440   -3.8895 N   0  0  0  0  0  0  0  0  0  0  0  0
   -4.7096   -0.3152   -2.8861 O   0  0  0  0  0  0  0  0  0  0  0  0
   -4.5791   -1.9275   -4.3544 O   0  0  0  0  0  0  0  0  0  0  0  0
   -0.2562    1.9636   -6.6234 N   0  0  0  0  0  0  0  0  0  0  0  0
    0.6437    2.1339   -7.2856 N   0  0  0  0  0  0  0  0  0  0  0  0
    2.2550   -0.2167   -6.3313 S   0  0  0  0  0  0  0  0  0  0  0  0
    3.7252    0.9172   -6.2582 C   0  0  0  0  0  0  0  0  0  0  0  0
    1.5765    0.2211   -7.6272 O   0  0  0  0  0  0  0  0  0  0  0  0
    1.4428    0.1646   -5.1560 O   0  0  0  0  0  0  0  0  0  0  0  0
    2.8097   -1.5687   -6.3955 O   0  0  0  0  0  0  0  0  0  0  0  0
    4.5152    0.7437   -7.3200 F   0  0  0  0  0  0  0  0  0  0  0  0
    3.3099    2.2005   -6.2397 F   0  0  0  0  0  0  0  0  0  0  0  0
    4.4313    0.6874   -5.1471 F   0  0  0  0  0  0  0  0  0  0  0  0
  1  6  2  0  0  0  0
  2  3  2  0  0  0  0
  2  1  1  0  0  0  0
  3  4  1  0  0  0  0
  4  9  1  0  0  0  0
  4  5  2  0  0  0  0
  5 10  1  0  0  0  0
  6  5  1  0  0  0  0
  6 11  1  0  0  0  0
  7  1  1  0  0  0  0
  8  2  1  0  0  0  0
 11 12  2  0  0  0  0
 13 11  2  0  0  0  0
 14  3  1  0  0  0  0
 15 14  1  0  0  0  0
 16 17  1  0  0  0  0
 16 19  1  0  0  0  0
 17 22  1  0  0  0  0
 17 23  1  0  0  0  0
 18 16  2  0  0  0  0
 20 16  2  0  0  0  0
 21 17  1  0  0  0  0
M  RAD  3  14   2  15   3  19   2
M  END
