Coordinates from ORCA-job p-NO2-Ph-N2-X-OTf-B3LYPG-6-31G_dp-scan-d09-49-n400
 OpenBabel08281820573D

 23 22  0  0  0  0  0  0  0  0999 V2000
   -2.0524   -0.7311   -5.0694 C   0  0  0  0  0  0  0  0  0  0  0  0
   -1.0079    0.1615   -5.2972 C   0  0  0  0  0  0  0  0  0  0  0  0
   -1.3094    1.5293   -5.2043 C   0  0  0  0  0  0  0  0  0  0  0  0
   -2.5804    2.0302   -4.8874 C   0  0  0  0  0  0  0  0  0  0  0  0
   -3.6089    1.1231   -4.6766 C   0  0  0  0  0  0  0  0  0  0  0  0
   -3.3207   -0.2386   -4.7715 C   0  0  0  0  0  0  0  0  0  0  0  0
   -1.8882   -1.8005   -5.1224 H   0  0  0  0  0  0  0  0  0  0  0  0
   -0.0017   -0.1933   -5.5225 H   0  0  0  0  0  0  0  0  0  0  0  0
   -2.7473    3.0993   -4.8188 H   0  0  0  0  0  0  0  0  0  0  0  0
   -4.6141    1.4441   -4.4369 H   0  0  0  0  0  0  0  0  0  0  0  0
   -4.4215   -1.2058   -4.5369 N   0  0  0  0  0  0  0  0  0  0  0  0
   -5.5273   -0.7401   -4.2779 O   0  0  0  0  0  0  0  0  0  0  0  0
   -4.1466   -2.3974   -4.6197 O   0  0  0  0  0  0  0  0  0  0  0  0
   -0.2914    2.4690   -5.4140 N   0  0  0  0  0  0  0  0  0  0  0  0
    0.7102    2.8502   -5.7811 N   0  0  0  0  0  0  0  0  0  0  0  0
    2.5293    0.5119   -6.0712 S   0  0  0  0  0  0  0  0  0  0  0  0
    3.8774    0.1141   -7.2889 C   0  0  0  0  0  0  0  0  0  0  0  0
    1.5409    1.2891   -6.9355 O   0  0  0  0  0  0  0  0  0  0  0  0
    3.1450    1.3351   -5.0222 O   0  0  0  0  0  0  0  0  0  0  0  0
    1.9661   -0.7949   -5.6698 O   0  0  0  0  0  0  0  0  0  0  0  0
    3.3844   -0.5966   -8.3088 F   0  0  0  0  0  0  0  0  0  0  0  0
    4.4137    1.2422   -7.7645 F   0  0  0  0  0  0  0  0  0  0  0  0
    4.8302   -0.5996   -6.6806 F   0  0  0  0  0  0  0  0  0  0  0  0
  1  6  2  0  0  0  0
  2  3  2  0  0  0  0
  2  1  1  0  0  0  0
  3  4  1  0  0  0  0
  4  9  1  0  0  0  0
  4  5  2  0  0  0  0
  5 10  1  0  0  0  0
  6  5  1  0  0  0  0
  6 11  1  0  0  0  0
  7  1  1  0  0  0  0
  8  2  1  0  0  0  0
 11 12  2  0  0  0  0
 13 11  2  0  0  0  0
 14  3  1  0  0  0  0
 15 14  1  0  0  0  0
 16 20  2  0  0  0  0
 16 19  1  0  0  0  0
 17 23  1  0  0  0  0
 17 16  1  0  0  0  0
 18 16  2  0  0  0  0
 21 17  1  0  0  0  0
 22 17  1  0  0  0  0
M  RAD  3  14   2  15   3  19   2
M  END
