Coordinates from ORCA-job p-NO2-Ph-N2-X-OTf-B3LYPG-6-31G_dp-scan-d09-49-n400
 OpenBabel08281820583D

 23 22  0  0  0  0  0  0  0  0999 V2000
   -2.7386   -0.6656   -5.8027 C   0  0  0  0  0  0  0  0  0  0  0  0
   -1.7515   -0.0209   -6.5357 C   0  0  0  0  0  0  0  0  0  0  0  0
   -1.2336    1.1747   -6.0172 C   0  0  0  0  0  0  0  0  0  0  0  0
   -1.6627    1.7518   -4.8167 C   0  0  0  0  0  0  0  0  0  0  0  0
   -2.6383    1.0843   -4.0885 C   0  0  0  0  0  0  0  0  0  0  0  0
   -3.1593   -0.1047   -4.5972 C   0  0  0  0  0  0  0  0  0  0  0  0
   -3.1761   -1.5955   -6.1421 H   0  0  0  0  0  0  0  0  0  0  0  0
   -1.3794   -0.4224   -7.4697 H   0  0  0  0  0  0  0  0  0  0  0  0
   -1.2251    2.6769   -4.4623 H   0  0  0  0  0  0  0  0  0  0  0  0
   -3.0021    1.4667   -3.1441 H   0  0  0  0  0  0  0  0  0  0  0  0
   -4.2127   -0.8006   -3.8241 N   0  0  0  0  0  0  0  0  0  0  0  0
   -4.5636   -0.2840   -2.7675 O   0  0  0  0  0  0  0  0  0  0  0  0
   -4.6611   -1.8394   -4.2986 O   0  0  0  0  0  0  0  0  0  0  0  0
   -0.2729    1.8418   -6.7693 N   0  0  0  0  0  0  0  0  0  0  0  0
    0.5918    2.0825   -7.4486 N   0  0  0  0  0  0  0  0  0  0  0  0
    2.2750   -0.1982   -6.3515 S   0  0  0  0  0  0  0  0  0  0  0  0
    3.6802    0.9954   -6.1293 C   0  0  0  0  0  0  0  0  0  0  0  0
    1.7247    0.2043   -7.7074 O   0  0  0  0  0  0  0  0  0  0  0  0
    1.3319    0.1629   -5.2658 O   0  0  0  0  0  0  0  0  0  0  0  0
    2.8823   -1.5284   -6.3255 O   0  0  0  0  0  0  0  0  0  0  0  0
    4.5885    0.8515   -7.0974 F   0  0  0  0  0  0  0  0  0  0  0  0
    3.2092    2.2603   -6.1713 F   0  0  0  0  0  0  0  0  0  0  0  0
    4.2727    0.8077   -4.9457 F   0  0  0  0  0  0  0  0  0  0  0  0
  1  6  2  0  0  0  0
  2  3  2  0  0  0  0
  2  1  1  0  0  0  0
  3  4  1  0  0  0  0
  4  9  1  0  0  0  0
  4  5  2  0  0  0  0
  5 10  1  0  0  0  0
  6  5  1  0  0  0  0
  6 11  1  0  0  0  0
  7  1  1  0  0  0  0
  8  2  1  0  0  0  0
 11 12  2  0  0  0  0
 13 11  2  0  0  0  0
 14  3  1  0  0  0  0
 15 14  1  0  0  0  0
 16 20  2  0  0  0  0
 16 17  1  0  0  0  0
 16 19  1  0  0  0  0
 17 23  1  0  0  0  0
 18 16  2  0  0  0  0
 21 17  1  0  0  0  0
 22 17  1  0  0  0  0
M  RAD  3  14   2  15   3  19   2
M  END
