Coordinates from ORCA-job p-NO2-Ph-N2-X-OTf-B3LYPG-6-31G_dp-scan-d09-49-n400
 OpenBabel08281820573D

 23 22  0  0  0  0  0  0  0  0999 V2000
   -2.2869   -0.7141   -5.5228 C   0  0  0  0  0  0  0  0  0  0  0  0
   -1.2992    0.1002   -6.0648 C   0  0  0  0  0  0  0  0  0  0  0  0
   -1.2945    1.4520   -5.6860 C   0  0  0  0  0  0  0  0  0  0  0  0
   -2.2246    2.0110   -4.8013 C   0  0  0  0  0  0  0  0  0  0  0  0
   -3.1982    1.1815   -4.2599 C   0  0  0  0  0  0  0  0  0  0  0  0
   -3.2090   -0.1609   -4.6359 C   0  0  0  0  0  0  0  0  0  0  0  0
   -2.3447   -1.7661   -5.7718 H   0  0  0  0  0  0  0  0  0  0  0  0
   -0.5485   -0.2789   -6.7490 H   0  0  0  0  0  0  0  0  0  0  0  0
   -2.1713    3.0625   -4.5442 H   0  0  0  0  0  0  0  0  0  0  0  0
   -3.9410    1.5498   -3.5640 H   0  0  0  0  0  0  0  0  0  0  0  0
   -4.2574   -1.0413   -4.0637 N   0  0  0  0  0  0  0  0  0  0  0  0
   -5.0481   -0.5292   -3.2773 O   0  0  0  0  0  0  0  0  0  0  0  0
   -4.2588   -2.2140   -4.4211 O   0  0  0  0  0  0  0  0  0  0  0  0
   -0.3243    2.3070   -6.2208 N   0  0  0  0  0  0  0  0  0  0  0  0
    0.6297    2.5290   -6.7952 N   0  0  0  0  0  0  0  0  0  0  0  0
    2.1826    0.0307   -6.2821 S   0  0  0  0  0  0  0  0  0  0  0  0
    3.9432    0.5192   -6.6147 C   0  0  0  0  0  0  0  0  0  0  0  0
    1.4352    0.7127   -7.4364 O   0  0  0  0  0  0  0  0  0  0  0  0
    1.8386    0.6461   -4.9877 O   0  0  0  0  0  0  0  0  0  0  0  0
    2.1293   -1.4288   -6.3997 O   0  0  0  0  0  0  0  0  0  0  0  0
    4.3394    0.0543   -7.8022 F   0  0  0  0  0  0  0  0  0  0  0  0
    4.0484    1.8558   -6.6147 F   0  0  0  0  0  0  0  0  0  0  0  0
    4.7393    0.0227   -5.6629 F   0  0  0  0  0  0  0  0  0  0  0  0
  1  6  2  0  0  0  0
  2  3  2  0  0  0  0
  2  1  1  0  0  0  0
  3  4  1  0  0  0  0
  4  9  1  0  0  0  0
  4  5  2  0  0  0  0
  5 10  1  0  0  0  0
  6  5  1  0  0  0  0
  6 11  1  0  0  0  0
  7  1  1  0  0  0  0
  8  2  1  0  0  0  0
 11 12  2  0  0  0  0
 13 11  2  0  0  0  0
 14  3  1  0  0  0  0
 15 14  2  0  0  0  0
 16 19  1  0  0  0  0
 17 22  1  0  0  0  0
 17 16  1  0  0  0  0
 17 23  1  0  0  0  0
 18 16  2  0  0  0  0
 20 16  2  0  0  0  0
 21 17  1  0  0  0  0
M  RAD  2  15   2  19   2
M  END
