Coordinates from ORCA-job p-NO2-Ph-N2-X-OTf-B3LYPG-6-31G_dp-scan-d09-49-n400
 OpenBabel08281820573D

 23 22  0  0  0  0  0  0  0  0999 V2000
   -1.9931   -0.7193   -5.0247 C   0  0  0  0  0  0  0  0  0  0  0  0
   -0.9567    0.1958   -5.1963 C   0  0  0  0  0  0  0  0  0  0  0  0
   -1.2995    1.5550   -5.1364 C   0  0  0  0  0  0  0  0  0  0  0  0
   -2.5983    2.0307   -4.9023 C   0  0  0  0  0  0  0  0  0  0  0  0
   -3.6150    1.1002   -4.7461 C   0  0  0  0  0  0  0  0  0  0  0  0
   -3.2884   -0.2552   -4.8099 C   0  0  0  0  0  0  0  0  0  0  0  0
   -1.8012   -1.7849   -5.0576 H   0  0  0  0  0  0  0  0  0  0  0  0
    0.0758   -0.1354   -5.3545 H   0  0  0  0  0  0  0  0  0  0  0  0
   -2.7948    3.0959   -4.8562 H   0  0  0  0  0  0  0  0  0  0  0  0
   -4.6406    1.3980   -4.5718 H   0  0  0  0  0  0  0  0  0  0  0  0
   -4.3787   -1.2466   -4.6327 N   0  0  0  0  0  0  0  0  0  0  0  0
   -5.5088   -0.8053   -4.4458 O   0  0  0  0  0  0  0  0  0  0  0  0
   -4.0714   -2.4319   -4.6861 O   0  0  0  0  0  0  0  0  0  0  0  0
   -0.2894    2.5118   -5.2979 N   0  0  0  0  0  0  0  0  0  0  0  0
    0.7075    2.9339   -5.6243 N   0  0  0  0  0  0  0  0  0  0  0  0
    2.5636    0.5982   -6.0383 S   0  0  0  0  0  0  0  0  0  0  0  0
    3.7599    0.0277   -7.3437 C   0  0  0  0  0  0  0  0  0  0  0  0
    1.5826    1.4266   -6.8568 O   0  0  0  0  0  0  0  0  0  0  0  0
    3.3404    1.3872   -5.0760 O   0  0  0  0  0  0  0  0  0  0  0  0
    1.9219   -0.6403   -5.5365 O   0  0  0  0  0  0  0  0  0  0  0  0
    3.1175   -0.6722   -8.2857 F   0  0  0  0  0  0  0  0  0  0  0  0
    4.3532    1.0807   -7.9139 F   0  0  0  0  0  0  0  0  0  0  0  0
    4.6929   -0.7494   -6.7849 F   0  0  0  0  0  0  0  0  0  0  0  0
  1  6  2  0  0  0  0
  2  3  2  0  0  0  0
  2  1  1  0  0  0  0
  3  4  1  0  0  0  0
  4  9  1  0  0  0  0
  4  5  2  0  0  0  0
  5 10  1  0  0  0  0
  6  5  1  0  0  0  0
  6 11  1  0  0  0  0
  7  1  1  0  0  0  0
  8  2  1  0  0  0  0
 11 12  2  0  0  0  0
 13 11  2  0  0  0  0
 14  3  1  0  0  0  0
 15 14  1  0  0  0  0
 16 20  2  0  0  0  0
 16 19  1  0  0  0  0
 17 23  1  0  0  0  0
 17 16  1  0  0  0  0
 18 16  2  0  0  0  0
 21 17  1  0  0  0  0
 22 17  1  0  0  0  0
M  RAD  3  14   2  15   3  19   2
M  END
