Coordinates from ORCA-job p-NO2-Ph-N2-X-OTf-B3LYPG-6-31G_dp-scan-d09-49-n400
 OpenBabel08281820573D

 23 22  0  0  0  0  0  0  0  0999 V2000
   -2.3871   -0.7171   -5.5557 C   0  0  0  0  0  0  0  0  0  0  0  0
   -1.3623    0.0389   -6.1119 C   0  0  0  0  0  0  0  0  0  0  0  0
   -1.2501    1.3774   -5.7054 C   0  0  0  0  0  0  0  0  0  0  0  0
   -2.1086    1.9802   -4.7790 C   0  0  0  0  0  0  0  0  0  0  0  0
   -3.1188    1.2070   -4.2207 C   0  0  0  0  0  0  0  0  0  0  0  0
   -3.2375   -0.1217   -4.6250 C   0  0  0  0  0  0  0  0  0  0  0  0
   -2.5296   -1.7558   -5.8251 H   0  0  0  0  0  0  0  0  0  0  0  0
   -0.6599   -0.3672   -6.8306 H   0  0  0  0  0  0  0  0  0  0  0  0
   -1.9744    3.0196   -4.5035 H   0  0  0  0  0  0  0  0  0  0  0  0
   -3.8103    1.6100   -3.4919 H   0  0  0  0  0  0  0  0  0  0  0  0
   -4.3272   -0.9396   -4.0380 N   0  0  0  0  0  0  0  0  0  0  0  0
   -5.0561   -0.3922   -3.2165 O   0  0  0  0  0  0  0  0  0  0  0  0
   -4.4249   -2.0996   -4.4234 O   0  0  0  0  0  0  0  0  0  0  0  0
   -0.2454    2.1711   -6.2692 N   0  0  0  0  0  0  0  0  0  0  0  0
    0.7051    2.3271   -6.8707 N   0  0  0  0  0  0  0  0  0  0  0  0
    2.2512   -0.1454   -6.3259 S   0  0  0  0  0  0  0  0  0  0  0  0
    3.8828    0.7134   -6.5534 C   0  0  0  0  0  0  0  0  0  0  0  0
    1.4208    0.4500   -7.4727 O   0  0  0  0  0  0  0  0  0  0  0  0
    1.7501    0.3172   -5.0191 O   0  0  0  0  0  0  0  0  0  0  0  0
    2.5115   -1.5713   -6.5222 O   0  0  0  0  0  0  0  0  0  0  0  0
    4.4117    0.4085   -7.7406 F   0  0  0  0  0  0  0  0  0  0  0  0
    3.7066    2.0444   -6.4881 F   0  0  0  0  0  0  0  0  0  0  0  0
    4.7317    0.3462   -5.5891 F   0  0  0  0  0  0  0  0  0  0  0  0
  1  6  2  0  0  0  0
  2  3  2  0  0  0  0
  2  1  1  0  0  0  0
  3  4  1  0  0  0  0
  4  9  1  0  0  0  0
  4  5  2  0  0  0  0
  5 10  1  0  0  0  0
  6  5  1  0  0  0  0
  6 11  1  0  0  0  0
  7  1  1  0  0  0  0
  8  2  1  0  0  0  0
 11 12  2  0  0  0  0
 13 11  2  0  0  0  0
 14  3  1  0  0  0  0
 15 14  2  0  0  0  0
 16 19  1  0  0  0  0
 17 22  1  0  0  0  0
 17 16  1  0  0  0  0
 17 23  1  0  0  0  0
 18 16  2  0  0  0  0
 20 16  2  0  0  0  0
 21 17  1  0  0  0  0
M  RAD  2  15   2  19   2
M  END
