Coordinates from ORCA-job p-NO2-Ph-N2-X-OTf-B3LYPG-6-31G_dp-scan-d09-49-n400
 OpenBabel08281820573D

 23 22  0  0  0  0  0  0  0  0999 V2000
   -2.2810   -0.7138   -5.5216 C   0  0  0  0  0  0  0  0  0  0  0  0
   -1.2960    0.1042   -6.0630 C   0  0  0  0  0  0  0  0  0  0  0  0
   -1.2977    1.4564   -5.6853 C   0  0  0  0  0  0  0  0  0  0  0  0
   -2.2315    2.0121   -4.8024 C   0  0  0  0  0  0  0  0  0  0  0  0
   -3.2023    1.1790   -4.2619 C   0  0  0  0  0  0  0  0  0  0  0  0
   -3.2069   -0.1638   -4.6366 C   0  0  0  0  0  0  0  0  0  0  0  0
   -2.3337   -1.7663   -5.7697 H   0  0  0  0  0  0  0  0  0  0  0  0
   -0.5427   -0.2731   -6.7452 H   0  0  0  0  0  0  0  0  0  0  0  0
   -2.1830    3.0641   -4.5461 H   0  0  0  0  0  0  0  0  0  0  0  0
   -3.9478    1.5447   -3.5674 H   0  0  0  0  0  0  0  0  0  0  0  0
   -4.2524   -1.0481   -4.0653 N   0  0  0  0  0  0  0  0  0  0  0  0
   -5.0461   -0.5387   -3.2801 O   0  0  0  0  0  0  0  0  0  0  0  0
   -4.2486   -2.2211   -4.4219 O   0  0  0  0  0  0  0  0  0  0  0  0
   -0.3302    2.3151   -6.2191 N   0  0  0  0  0  0  0  0  0  0  0  0
    0.6232    2.5429   -6.7919 N   0  0  0  0  0  0  0  0  0  0  0  0
    2.1793    0.0448   -6.2788 S   0  0  0  0  0  0  0  0  0  0  0  0
    3.9461    0.5055   -6.6179 C   0  0  0  0  0  0  0  0  0  0  0  0
    1.4385    0.7305   -7.4347 O   0  0  0  0  0  0  0  0  0  0  0  0
    1.8468    0.6711   -4.9865 O   0  0  0  0  0  0  0  0  0  0  0  0
    2.1047   -1.4146   -6.3882 O   0  0  0  0  0  0  0  0  0  0  0  0
    4.3319    0.0291   -7.8044 F   0  0  0  0  0  0  0  0  0  0  0  0
    4.0717    1.8401   -6.6242 F   0  0  0  0  0  0  0  0  0  0  0  0
    4.7369    0.0009   -5.6660 F   0  0  0  0  0  0  0  0  0  0  0  0
  1  6  2  0  0  0  0
  2  3  2  0  0  0  0
  2  1  1  0  0  0  0
  3  4  1  0  0  0  0
  4  9  1  0  0  0  0
  4  5  2  0  0  0  0
  5 10  1  0  0  0  0
  6  5  1  0  0  0  0
  6 11  1  0  0  0  0
  7  1  1  0  0  0  0
  8  2  1  0  0  0  0
 11 12  2  0  0  0  0
 13 11  2  0  0  0  0
 14  3  1  0  0  0  0
 15 14  2  0  0  0  0
 16 19  1  0  0  0  0
 17 16  1  0  0  0  0
 17 23  1  0  0  0  0
 18 16  2  0  0  0  0
 20 16  2  0  0  0  0
 21 17  1  0  0  0  0
 22 17  1  0  0  0  0
M  RAD  2  15   2  19   2
M  END
