Coordinates from ORCA-job p-NO2-Ph-N2-X-OTf-B3LYPG-6-31G_dp-scan-d09-49-n400
 OpenBabel08281820573D

 23 22  0  0  0  0  0  0  0  0999 V2000
   -1.7915   -0.6542   -5.0286 C   0  0  0  0  0  0  0  0  0  0  0  0
   -0.8043    0.3346   -5.1099 C   0  0  0  0  0  0  0  0  0  0  0  0
   -1.2813    1.6512   -5.0430 C   0  0  0  0  0  0  0  0  0  0  0  0
   -2.6261    2.0422   -4.8970 C   0  0  0  0  0  0  0  0  0  0  0  0
   -3.5689    1.0331   -4.8221 C   0  0  0  0  0  0  0  0  0  0  0  0
   -3.1273   -0.2941   -4.8892 C   0  0  0  0  0  0  0  0  0  0  0  0
   -1.5235   -1.7034   -5.0728 H   0  0  0  0  0  0  0  0  0  0  0  0
    0.3444    0.0887   -5.2204 H   0  0  0  0  0  0  0  0  0  0  0  0
   -2.9072    3.0885   -4.8517 H   0  0  0  0  0  0  0  0  0  0  0  0
   -4.6248    1.2427   -4.7120 H   0  0  0  0  0  0  0  0  0  0  0  0
   -4.1515   -1.3680   -4.8017 N   0  0  0  0  0  0  0  0  0  0  0  0
   -5.3209   -1.0144   -4.6782 O   0  0  0  0  0  0  0  0  0  0  0  0
   -3.7553   -2.5258   -4.8589 O   0  0  0  0  0  0  0  0  0  0  0  0
   -0.3232    2.6613   -5.1233 N   0  0  0  0  0  0  0  0  0  0  0  0
    0.5608    3.3298   -5.2583 N   0  0  0  0  0  0  0  0  0  0  0  0
    2.6538    0.7530   -5.9666 S   0  0  0  0  0  0  0  0  0  0  0  0
    3.3051   -0.2035   -7.4201 C   0  0  0  0  0  0  0  0  0  0  0  0
    1.9029    1.8772   -6.6030 O   0  0  0  0  0  0  0  0  0  0  0  0
    3.8191    1.1122   -5.1589 O   0  0  0  0  0  0  0  0  0  0  0  0
    1.7058   -0.2277   -5.3202 O   0  0  0  0  0  0  0  0  0  0  0  0
    2.2924   -0.5955   -8.2070 F   0  0  0  0  0  0  0  0  0  0  0  0
    4.1356    0.5603   -8.1371 F   0  0  0  0  0  0  0  0  0  0  0  0
    3.9650   -1.2869   -6.9983 F   0  0  0  0  0  0  0  0  0  0  0  0
  1  6  2  0  0  0  0
  2  3  2  0  0  0  0
  2  1  1  0  0  0  0
  3  4  1  0  0  0  0
  4  9  1  0  0  0  0
  4  5  2  0  0  0  0
  5 10  1  0  0  0  0
  6  5  1  0  0  0  0
  6 11  1  0  0  0  0
  7  1  1  0  0  0  0
  8  2  1  0  0  0  0
 11 12  2  0  0  0  0
 13 11  2  0  0  0  0
 14  3  1  0  0  0  0
 15 14  1  0  0  0  0
 16 20  2  0  0  0  0
 16 19  1  0  0  0  0
 17 23  1  0  0  0  0
 17 16  1  0  0  0  0
 18 16  2  0  0  0  0
 21 17  1  0  0  0  0
 22 17  1  0  0  0  0
M  RAD  3  14   2  15   3  19   2
M  END
