Coordinates from ORCA-job p-NO2-Ph-N2-X-OTf-B3LYPG-6-31G_dp-scan-d09-49-n400
 OpenBabel08281820583D

 23 22  0  0  0  0  0  0  0  0999 V2000
   -2.5482   -0.7925   -5.4979 C   0  0  0  0  0  0  0  0  0  0  0  0
   -1.6040   -0.2988   -6.3892 C   0  0  0  0  0  0  0  0  0  0  0  0
   -1.1330    1.0024   -6.1779 C   0  0  0  0  0  0  0  0  0  0  0  0
   -1.5402    1.8147   -5.1093 C   0  0  0  0  0  0  0  0  0  0  0  0
   -2.4678    1.2947   -4.2162 C   0  0  0  0  0  0  0  0  0  0  0  0
   -2.9587    0.0086   -4.4334 C   0  0  0  0  0  0  0  0  0  0  0  0
   -2.9557   -1.7893   -5.6056 H   0  0  0  0  0  0  0  0  0  0  0  0
   -1.2117   -0.8926   -7.2034 H   0  0  0  0  0  0  0  0  0  0  0  0
   -1.1295    2.8091   -4.9827 H   0  0  0  0  0  0  0  0  0  0  0  0
   -2.8174    1.8661   -3.3658 H   0  0  0  0  0  0  0  0  0  0  0  0
   -3.9609   -0.5313   -3.4855 N   0  0  0  0  0  0  0  0  0  0  0  0
   -4.2916    0.1914   -2.5503 O   0  0  0  0  0  0  0  0  0  0  0  0
   -4.3894   -1.6589   -3.7074 O   0  0  0  0  0  0  0  0  0  0  0  0
   -0.2362    1.5635   -7.0859 N   0  0  0  0  0  0  0  0  0  0  0  0
    0.3466    2.2148   -7.7866 N   0  0  0  0  0  0  0  0  0  0  0  0
    2.5128    0.0051   -7.1995 S   0  0  0  0  0  0  0  0  0  0  0  0
    2.9609    0.7016   -5.5364 C   0  0  0  0  0  0  0  0  0  0  0  0
    2.4803    1.2195   -8.0676 O   0  0  0  0  0  0  0  0  0  0  0  0
    1.1312   -0.5119   -6.9418 O   0  0  0  0  0  0  0  0  0  0  0  0
    3.5376   -0.9904   -7.5012 O   0  0  0  0  0  0  0  0  0  0  0  0
    4.1312    1.3404   -5.5710 F   0  0  0  0  0  0  0  0  0  0  0  0
    2.0066    1.5932   -5.1556 F   0  0  0  0  0  0  0  0  0  0  0  0
    3.0165   -0.2584   -4.6080 F   0  0  0  0  0  0  0  0  0  0  0  0
  1  6  2  0  0  0  0
  2  3  2  0  0  0  0
  2  1  1  0  0  0  0
  3  4  1  0  0  0  0
  4  9  1  0  0  0  0
  4  5  2  0  0  0  0
  5 10  1  0  0  0  0
  6  5  1  0  0  0  0
  6 11  1  0  0  0  0
  7  1  1  0  0  0  0
  8  2  1  0  0  0  0
 11 12  2  0  0  0  0
 13 11  2  0  0  0  0
 14  3  1  0  0  0  0
 15 14  1  0  0  0  0
 16 19  1  0  0  0  0
 16 17  1  0  0  0  0
 17 22  1  0  0  0  0
 17 23  1  0  0  0  0
 18 16  2  0  0  0  0
 20 16  2  0  0  0  0
 21 17  1  0  0  0  0
M  RAD  3  14   2  15   3  19   2
M  END
