Coordinates from ORCA-job p-NO2-Ph-N2-X-OTf-B3LYPG-6-31G_dp-scan-d09-49-n400
 OpenBabel08281820573D

 23 22  0  0  0  0  0  0  0  0999 V2000
   -2.2746   -0.7135   -5.5201 C   0  0  0  0  0  0  0  0  0  0  0  0
   -1.2922    0.1080   -6.0612 C   0  0  0  0  0  0  0  0  0  0  0  0
   -1.3001    1.4606   -5.6850 C   0  0  0  0  0  0  0  0  0  0  0  0
   -2.2375    2.0134   -4.8038 C   0  0  0  0  0  0  0  0  0  0  0  0
   -3.2056    1.1768   -4.2638 C   0  0  0  0  0  0  0  0  0  0  0  0
   -3.2040   -0.1664   -4.6371 C   0  0  0  0  0  0  0  0  0  0  0  0
   -2.3223   -1.7665   -5.7671 H   0  0  0  0  0  0  0  0  0  0  0  0
   -0.5365   -0.2677   -6.7418 H   0  0  0  0  0  0  0  0  0  0  0  0
   -2.1936    3.0658   -4.5486 H   0  0  0  0  0  0  0  0  0  0  0  0
   -3.9535    1.5401   -3.5708 H   0  0  0  0  0  0  0  0  0  0  0  0
   -4.2466   -1.0544   -4.0662 N   0  0  0  0  0  0  0  0  0  0  0  0
   -5.0435   -0.5474   -3.2827 O   0  0  0  0  0  0  0  0  0  0  0  0
   -4.2379   -2.2276   -4.4222 O   0  0  0  0  0  0  0  0  0  0  0  0
   -0.3354    2.3230   -6.2179 N   0  0  0  0  0  0  0  0  0  0  0  0
    0.6173    2.5561   -6.7894 N   0  0  0  0  0  0  0  0  0  0  0  0
    2.1750    0.0574   -6.2767 S   0  0  0  0  0  0  0  0  0  0  0  0
    3.9475    0.4928   -6.6199 C   0  0  0  0  0  0  0  0  0  0  0  0
    1.4412    0.7472   -7.4341 O   0  0  0  0  0  0  0  0  0  0  0  0
    1.8524    0.6925   -4.9862 O   0  0  0  0  0  0  0  0  0  0  0  0
    2.0805   -1.4015   -6.3801 O   0  0  0  0  0  0  0  0  0  0  0  0
    4.3248    0.0068   -7.8052 F   0  0  0  0  0  0  0  0  0  0  0  0
    4.0917    1.8253   -6.6311 F   0  0  0  0  0  0  0  0  0  0  0  0
    4.7325   -0.0196   -5.6673 F   0  0  0  0  0  0  0  0  0  0  0  0
  1  6  2  0  0  0  0
  2  3  2  0  0  0  0
  2  1  1  0  0  0  0
  3  4  1  0  0  0  0
  4  9  1  0  0  0  0
  4  5  2  0  0  0  0
  5 10  1  0  0  0  0
  6  5  1  0  0  0  0
  6 11  1  0  0  0  0
  7  1  1  0  0  0  0
  8  2  1  0  0  0  0
 11 12  2  0  0  0  0
 13 11  2  0  0  0  0
 14  3  1  0  0  0  0
 15 14  2  0  0  0  0
 16 19  1  0  0  0  0
 17 16  1  0  0  0  0
 17 23  1  0  0  0  0
 18 16  2  0  0  0  0
 20 16  2  0  0  0  0
 21 17  1  0  0  0  0
 22 17  1  0  0  0  0
M  RAD  2  15   2  19   2
M  END
