Coordinates from ORCA-job p-NO2-Ph-N2-X-OTf-B3LYPG-6-31G_dp-scan-d09-49-n400
 OpenBabel08281820573D

 23 22  0  0  0  0  0  0  0  0999 V2000
   -2.2410   -0.7117   -5.5115 C   0  0  0  0  0  0  0  0  0  0  0  0
   -1.2727    0.1284   -6.0501 C   0  0  0  0  0  0  0  0  0  0  0  0
   -1.3147    1.4826   -5.6819 C   0  0  0  0  0  0  0  0  0  0  0  0
   -2.2715    2.0196   -4.8114 C   0  0  0  0  0  0  0  0  0  0  0  0
   -3.2254    1.1649   -4.2753 C   0  0  0  0  0  0  0  0  0  0  0  0
   -3.1903   -0.1803   -4.6406 C   0  0  0  0  0  0  0  0  0  0  0  0
   -2.2616   -1.7671   -5.7521 H   0  0  0  0  0  0  0  0  0  0  0  0
   -0.5030   -0.2390   -6.7195 H   0  0  0  0  0  0  0  0  0  0  0  0
   -2.2530    3.0741   -4.5616 H   0  0  0  0  0  0  0  0  0  0  0  0
   -3.9873    1.5152   -3.5908 H   0  0  0  0  0  0  0  0  0  0  0  0
   -4.2181   -1.0879   -4.0733 N   0  0  0  0  0  0  0  0  0  0  0  0
   -5.0298   -0.5949   -3.2959 O   0  0  0  0  0  0  0  0  0  0  0  0
   -4.1806   -2.2625   -4.4221 O   0  0  0  0  0  0  0  0  0  0  0  0
   -0.3642    2.3632   -6.2097 N   0  0  0  0  0  0  0  0  0  0  0  0
    0.5839    2.6300   -6.7720 N   0  0  0  0  0  0  0  0  0  0  0  0
    2.1567    0.1277   -6.2677 S   0  0  0  0  0  0  0  0  0  0  0  0
    3.9542    0.4222   -6.6316 C   0  0  0  0  0  0  0  0  0  0  0  0
    1.4632    0.8425   -7.4321 O   0  0  0  0  0  0  0  0  0  0  0  0
    1.8902    0.8054   -4.9858 O   0  0  0  0  0  0  0  0  0  0  0  0
    1.9560   -1.3240   -6.3387 O   0  0  0  0  0  0  0  0  0  0  0  0
    4.2834   -0.1173   -7.8083 F   0  0  0  0  0  0  0  0  0  0  0  0
    4.1992    1.7385   -6.6731 F   0  0  0  0  0  0  0  0  0  0  0  0
    4.7055   -0.1285   -5.6730 F   0  0  0  0  0  0  0  0  0  0  0  0
  1  6  2  0  0  0  0
  2  3  2  0  0  0  0
  2  1  1  0  0  0  0
  3  4  1  0  0  0  0
  4  9  1  0  0  0  0
  4  5  2  0  0  0  0
  5 10  1  0  0  0  0
  6  5  1  0  0  0  0
  6 11  1  0  0  0  0
  7  1  1  0  0  0  0
  8  2  1  0  0  0  0
 11 12  2  0  0  0  0
 13 11  2  0  0  0  0
 14  3  1  0  0  0  0
 15 14  2  0  0  0  0
 16 19  1  0  0  0  0
 17 16  1  0  0  0  0
 17 23  1  0  0  0  0
 18 16  2  0  0  0  0
 20 16  2  0  0  0  0
 21 17  1  0  0  0  0
 22 17  1  0  0  0  0
M  RAD  2  15   2  19   2
M  END
