Coordinates from ORCA-job p-NO2-Ph-N2-X-OTf-B3LYPG-6-31G_dp-scan-d09-49-n400
 OpenBabel08281820573D

 23 22  0  0  0  0  0  0  0  0999 V2000
   -1.7010   -0.6204   -4.9971 C   0  0  0  0  0  0  0  0  0  0  0  0
   -0.7231    0.3866   -5.0345 C   0  0  0  0  0  0  0  0  0  0  0  0
   -1.2470    1.6865   -5.0019 C   0  0  0  0  0  0  0  0  0  0  0  0
   -2.6089    2.0532   -4.9342 C   0  0  0  0  0  0  0  0  0  0  0  0
   -3.5288    1.0240   -4.8992 C   0  0  0  0  0  0  0  0  0  0  0  0
   -3.0496   -0.2935   -4.9298 C   0  0  0  0  0  0  0  0  0  0  0  0
   -1.4113   -1.6649   -5.0210 H   0  0  0  0  0  0  0  0  0  0  0  0
    0.5043    0.1266   -5.1161 H   0  0  0  0  0  0  0  0  0  0  0  0
   -2.9163    3.0932   -4.9150 H   0  0  0  0  0  0  0  0  0  0  0  0
   -4.5940    1.2080   -4.8486 H   0  0  0  0  0  0  0  0  0  0  0  0
   -4.0525   -1.3907   -4.8866 N   0  0  0  0  0  0  0  0  0  0  0  0
   -5.2353   -1.0636   -4.8353 O   0  0  0  0  0  0  0  0  0  0  0  0
   -3.6285   -2.5398   -4.9046 O   0  0  0  0  0  0  0  0  0  0  0  0
   -0.3221    2.7285   -5.0293 N   0  0  0  0  0  0  0  0  0  0  0  0
    0.4737    3.5054   -5.0712 N   0  0  0  0  0  0  0  0  0  0  0  0
    2.6615    0.7402   -5.9407 S   0  0  0  0  0  0  0  0  0  0  0  0
    3.0984   -0.2608   -7.4426 C   0  0  0  0  0  0  0  0  0  0  0  0
    1.9032    1.8967   -6.4787 O   0  0  0  0  0  0  0  0  0  0  0  0
    3.9198    1.0093   -5.2501 O   0  0  0  0  0  0  0  0  0  0  0  0
    1.7292   -0.2036   -5.1914 O   0  0  0  0  0  0  0  0  0  0  0  0
    1.9837   -0.5943   -8.1112 F   0  0  0  0  0  0  0  0  0  0  0  0
    3.8870    0.4539   -8.2517 F   0  0  0  0  0  0  0  0  0  0  0  0
    3.7369   -1.3793   -7.0872 F   0  0  0  0  0  0  0  0  0  0  0  0
  1  6  2  0  0  0  0
  2  3  2  0  0  0  0
  2  1  1  0  0  0  0
  3  4  1  0  0  0  0
  4  9  1  0  0  0  0
  4  5  2  0  0  0  0
  5 10  1  0  0  0  0
  6  5  1  0  0  0  0
  6 11  1  0  0  0  0
  7  1  1  0  0  0  0
  8  2  1  0  0  0  0
 11 12  2  0  0  0  0
 13 11  2  0  0  0  0
 14  3  1  0  0  0  0
 15 14  1  0  0  0  0
 16 19  2  0  0  0  0
 16 20  1  0  0  0  0
 17 23  1  0  0  0  0
 17 16  1  0  0  0  0
 18 16  2  0  0  0  0
 21 17  1  0  0  0  0
 22 17  1  0  0  0  0
M  RAD  3  14   2  15   3  20   2
M  END
