Coordinates from ORCA-job p-NO2-Ph-N2-X-OTf-B3LYPG-6-31G_dp-scan-d09-49-n400
 OpenBabel08281820573D

 23 22  0  0  0  0  0  0  0  0999 V2000
   -2.3667   -0.7173   -5.5440 C   0  0  0  0  0  0  0  0  0  0  0  0
   -1.3453    0.0484   -6.0934 C   0  0  0  0  0  0  0  0  0  0  0  0
   -1.2558    1.3913   -5.6951 C   0  0  0  0  0  0  0  0  0  0  0  0
   -2.1336    1.9885   -4.7830 C   0  0  0  0  0  0  0  0  0  0  0  0
   -3.1407    1.2062   -4.2321 C   0  0  0  0  0  0  0  0  0  0  0  0
   -3.2366   -0.1269   -4.6283 C   0  0  0  0  0  0  0  0  0  0  0  0
   -2.4918   -1.7597   -5.8077 H   0  0  0  0  0  0  0  0  0  0  0  0
   -0.6294   -0.3539   -6.8011 H   0  0  0  0  0  0  0  0  0  0  0  0
   -2.0162    3.0314   -4.5128 H   0  0  0  0  0  0  0  0  0  0  0  0
   -3.8466    1.6049   -3.5149 H   0  0  0  0  0  0  0  0  0  0  0  0
   -4.3224   -0.9552   -4.0486 N   0  0  0  0  0  0  0  0  0  0  0  0
   -5.0645   -0.4136   -3.2351 O   0  0  0  0  0  0  0  0  0  0  0  0
   -4.3942   -2.1217   -4.4197 O   0  0  0  0  0  0  0  0  0  0  0  0
   -0.2535    2.1957   -6.2484 N   0  0  0  0  0  0  0  0  0  0  0  0
    0.7002    2.3595   -6.8433 N   0  0  0  0  0  0  0  0  0  0  0  0
    2.2403   -0.1217   -6.3216 S   0  0  0  0  0  0  0  0  0  0  0  0
    3.8963    0.6825   -6.5714 C   0  0  0  0  0  0  0  0  0  0  0  0
    1.4169    0.4938   -7.4625 O   0  0  0  0  0  0  0  0  0  0  0  0
    1.7681    0.3613   -5.0116 O   0  0  0  0  0  0  0  0  0  0  0  0
    2.4476   -1.5565   -6.5153 O   0  0  0  0  0  0  0  0  0  0  0  0
    4.4020    0.3524   -7.7619 F   0  0  0  0  0  0  0  0  0  0  0  0
    3.7628    2.0181   -6.5132 F   0  0  0  0  0  0  0  0  0  0  0  0
    4.7427    0.2937   -5.6133 F   0  0  0  0  0  0  0  0  0  0  0  0
  1  6  2  0  0  0  0
  2  3  2  0  0  0  0
  2  1  1  0  0  0  0
  3  4  1  0  0  0  0
  4  9  1  0  0  0  0
  4  5  2  0  0  0  0
  5 10  1  0  0  0  0
  6  5  1  0  0  0  0
  6 11  1  0  0  0  0
  7  1  1  0  0  0  0
  8  2  1  0  0  0  0
 11 12  2  0  0  0  0
 13 11  2  0  0  0  0
 14  3  1  0  0  0  0
 15 14  2  0  0  0  0
 16 19  1  0  0  0  0
 17 22  1  0  0  0  0
 17 16  1  0  0  0  0
 17 23  1  0  0  0  0
 18 16  2  0  0  0  0
 20 16  2  0  0  0  0
 21 17  1  0  0  0  0
M  RAD  2  15   2  19   2
M  END
