Coordinates from ORCA-job p-NO2-Ph-N2-X-OTf-B3LYPG-6-31G_dp-scan-d09-49-n400
 OpenBabel08281820583D

 23 22  0  0  0  0  0  0  0  0999 V2000
   -2.5607   -0.6953   -5.7030 C   0  0  0  0  0  0  0  0  0  0  0  0
   -1.5527    0.0006   -6.3572 C   0  0  0  0  0  0  0  0  0  0  0  0
   -1.2290    1.2782   -5.8777 C   0  0  0  0  0  0  0  0  0  0  0  0
   -1.8677    1.8845   -4.7910 C   0  0  0  0  0  0  0  0  0  0  0  0
   -2.8594    1.1666   -4.1341 C   0  0  0  0  0  0  0  0  0  0  0  0
   -3.1876   -0.1028   -4.6070 C   0  0  0  0  0  0  0  0  0  0  0  0
   -2.8578   -1.6868   -6.0190 H   0  0  0  0  0  0  0  0  0  0  0  0
   -1.0195   -0.4138   -7.2033 H   0  0  0  0  0  0  0  0  0  0  0  0
   -1.5798    2.8775   -4.4678 H   0  0  0  0  0  0  0  0  0  0  0  0
   -3.3819    1.5705   -3.2768 H   0  0  0  0  0  0  0  0  0  0  0  0
   -4.2610   -0.8552   -3.9150 N   0  0  0  0  0  0  0  0  0  0  0  0
   -4.7914   -0.3126   -2.9505 O   0  0  0  0  0  0  0  0  0  0  0  0
   -4.5436   -1.9623   -4.3608 O   0  0  0  0  0  0  0  0  0  0  0  0
   -0.2470    2.0039   -6.5538 N   0  0  0  0  0  0  0  0  0  0  0  0
    0.6616    2.1649   -7.2085 N   0  0  0  0  0  0  0  0  0  0  0  0
    2.2561   -0.2240   -6.3484 S   0  0  0  0  0  0  0  0  0  0  0  0
    3.7473    0.8842   -6.3083 C   0  0  0  0  0  0  0  0  0  0  0  0
    1.5382    0.2514   -7.6122 O   0  0  0  0  0  0  0  0  0  0  0  0
    1.4908    0.1442   -5.1392 O   0  0  0  0  0  0  0  0  0  0  0  0
    2.7847   -1.5829   -6.4642 O   0  0  0  0  0  0  0  0  0  0  0  0
    4.4884    0.7248   -7.4070 F   0  0  0  0  0  0  0  0  0  0  0  0
    3.3564    2.1728   -6.2393 F   0  0  0  0  0  0  0  0  0  0  0  0
    4.4949    0.6125   -5.2344 F   0  0  0  0  0  0  0  0  0  0  0  0
  1  6  2  0  0  0  0
  2  3  2  0  0  0  0
  2  1  1  0  0  0  0
  3  4  1  0  0  0  0
  4  9  1  0  0  0  0
  4  5  2  0  0  0  0
  5 10  1  0  0  0  0
  6  5  1  0  0  0  0
  6 11  1  0  0  0  0
  7  1  1  0  0  0  0
  8  2  1  0  0  0  0
 11 12  2  0  0  0  0
 13 11  2  0  0  0  0
 14  3  1  0  0  0  0
 15 14  1  0  0  0  0
 16 17  1  0  0  0  0
 16 19  1  0  0  0  0
 17 22  1  0  0  0  0
 17 23  1  0  0  0  0
 18 16  2  0  0  0  0
 20 16  2  0  0  0  0
 21 17  1  0  0  0  0
M  RAD  3  14   2  15   3  19   2
M  END
