Coordinates from ORCA-job p-NO2-Ph-N2-X-OTf-B3LYPG-6-31G_dp-scan-d09-49-n400
 OpenBabel08281820573D

 23 22  0  0  0  0  0  0  0  0999 V2000
   -1.8059   -0.6608   -5.0306 C   0  0  0  0  0  0  0  0  0  0  0  0
   -0.8162    0.3240   -5.1168 C   0  0  0  0  0  0  0  0  0  0  0  0
   -1.2840    1.6438   -5.0483 C   0  0  0  0  0  0  0  0  0  0  0  0
   -2.6260    2.0397   -4.8952 C   0  0  0  0  0  0  0  0  0  0  0  0
   -3.5737    1.0351   -4.8162 C   0  0  0  0  0  0  0  0  0  0  0  0
   -3.1396   -0.2940   -4.8853 C   0  0  0  0  0  0  0  0  0  0  0  0
   -1.5424   -1.7110   -5.0755 H   0  0  0  0  0  0  0  0  0  0  0  0
    0.3202    0.0778   -5.2286 H   0  0  0  0  0  0  0  0  0  0  0  0
   -2.9019    3.0873   -4.8483 H   0  0  0  0  0  0  0  0  0  0  0  0
   -4.6281    1.2501   -4.7011 H   0  0  0  0  0  0  0  0  0  0  0  0
   -4.1681   -1.3631   -4.7929 N   0  0  0  0  0  0  0  0  0  0  0  0
   -5.3352   -1.0042   -4.6635 O   0  0  0  0  0  0  0  0  0  0  0  0
   -3.7775   -2.5227   -4.8522 O   0  0  0  0  0  0  0  0  0  0  0  0
   -0.3211    2.6493   -5.1337 N   0  0  0  0  0  0  0  0  0  0  0  0
    0.5757    3.2991   -5.2832 N   0  0  0  0  0  0  0  0  0  0  0  0
    2.6531    0.7562   -5.9697 S   0  0  0  0  0  0  0  0  0  0  0  0
    3.3343   -0.1936   -7.4143 C   0  0  0  0  0  0  0  0  0  0  0  0
    1.8935    1.8678   -6.6231 O   0  0  0  0  0  0  0  0  0  0  0  0
    3.8050    1.1410   -5.1540 O   0  0  0  0  0  0  0  0  0  0  0  0
    1.7139   -0.2325   -5.3288 O   0  0  0  0  0  0  0  0  0  0  0  0
    2.3360   -0.6067   -8.2085 F   0  0  0  0  0  0  0  0  0  0  0  0
    4.1578    0.5817   -8.1268 F   0  0  0  0  0  0  0  0  0  0  0  0
    4.0094   -1.2634   -6.9816 F   0  0  0  0  0  0  0  0  0  0  0  0
  1  6  2  0  0  0  0
  2  3  2  0  0  0  0
  2  1  1  0  0  0  0
  3  4  1  0  0  0  0
  4  9  1  0  0  0  0
  4  5  2  0  0  0  0
  5 10  1  0  0  0  0
  6  5  1  0  0  0  0
  6 11  1  0  0  0  0
  7  1  1  0  0  0  0
  8  2  1  0  0  0  0
 11 12  2  0  0  0  0
 13 11  2  0  0  0  0
 14  3  1  0  0  0  0
 15 14  1  0  0  0  0
 16 20  2  0  0  0  0
 16 19  1  0  0  0  0
 17 23  1  0  0  0  0
 17 16  1  0  0  0  0
 18 16  2  0  0  0  0
 21 17  1  0  0  0  0
 22 17  1  0  0  0  0
M  RAD  3  14   2  15   3  19   2
M  END
