Coordinates from ORCA-job p-NO2-Ph-N2-X-OTf-B3LYPG-6-31G_dp-scan-d09-49-n400
 OpenBabel08281820583D

 23 22  0  0  0  0  0  0  0  0999 V2000
   -2.4757   -0.7073   -5.6372 C   0  0  0  0  0  0  0  0  0  0  0  0
   -1.4601    0.0121   -6.2541 C   0  0  0  0  0  0  0  0  0  0  0  0
   -1.2315    1.3226   -5.8096 C   0  0  0  0  0  0  0  0  0  0  0  0
   -1.9679    1.9366   -4.7910 C   0  0  0  0  0  0  0  0  0  0  0  0
   -2.9669    1.1971   -4.1702 C   0  0  0  0  0  0  0  0  0  0  0  0
   -3.2016   -0.1045   -4.6102 C   0  0  0  0  0  0  0  0  0  0  0  0
   -2.7042   -1.7238   -5.9299 H   0  0  0  0  0  0  0  0  0  0  0  0
   -0.8494   -0.4043   -7.0457 H   0  0  0  0  0  0  0  0  0  0  0  0
   -1.7491    2.9548   -4.4922 H   0  0  0  0  0  0  0  0  0  0  0  0
   -3.5645    1.6073   -3.3664 H   0  0  0  0  0  0  0  0  0  0  0  0
   -4.2818   -0.8829   -3.9571 N   0  0  0  0  0  0  0  0  0  0  0  0
   -4.8965   -0.3326   -3.0488 O   0  0  0  0  0  0  0  0  0  0  0  0
   -4.4843   -2.0175   -4.3762 O   0  0  0  0  0  0  0  0  0  0  0  0
   -0.2395    2.0735   -6.4451 N   0  0  0  0  0  0  0  0  0  0  0  0
    0.6833    2.2271   -7.0844 N   0  0  0  0  0  0  0  0  0  0  0  0
    2.2462   -0.2183   -6.3643 S   0  0  0  0  0  0  0  0  0  0  0  0
    3.7860    0.8216   -6.3900 C   0  0  0  0  0  0  0  0  0  0  0  0
    1.4804    0.3171   -7.5784 O   0  0  0  0  0  0  0  0  0  0  0  0
    1.5647    0.1533   -5.1085 O   0  0  0  0  0  0  0  0  0  0  0  0
    2.6991   -1.5974   -6.5442 O   0  0  0  0  0  0  0  0  0  0  0  0
    4.4569    0.6469   -7.5309 F   0  0  0  0  0  0  0  0  0  0  0  0
    3.4584    2.1235   -6.2802 F   0  0  0  0  0  0  0  0  0  0  0  0
    4.5776    0.4960   -5.3639 F   0  0  0  0  0  0  0  0  0  0  0  0
  1  6  2  0  0  0  0
  2  3  2  0  0  0  0
  2  1  1  0  0  0  0
  3  4  1  0  0  0  0
  4  9  1  0  0  0  0
  4  5  2  0  0  0  0
  5 10  1  0  0  0  0
  6  5  1  0  0  0  0
  6 11  1  0  0  0  0
  7  1  1  0  0  0  0
  8  2  1  0  0  0  0
 11 12  2  0  0  0  0
 13 11  2  0  0  0  0
 14  3  1  0  0  0  0
 15 14  1  0  0  0  0
 16 19  1  0  0  0  0
 17 16  1  0  0  0  0
 17 22  1  0  0  0  0
 17 23  1  0  0  0  0
 18 16  2  0  0  0  0
 20 16  2  0  0  0  0
 21 17  1  0  0  0  0
M  RAD  3  14   2  15   3  19   2
M  END
