Coordinates from ORCA-job p-NO2-Ph-N2-X-OTf-B3LYPG-6-31G_dp-scan-d09-49-n400
 OpenBabel08281820573D

 23 22  0  0  0  0  0  0  0  0999 V2000
   -2.3432   -0.7175   -5.5318 C   0  0  0  0  0  0  0  0  0  0  0  0
   -1.3282    0.0597   -6.0770 C   0  0  0  0  0  0  0  0  0  0  0  0
   -1.2633    1.4068   -5.6877 C   0  0  0  0  0  0  0  0  0  0  0  0
   -2.1594    1.9966   -4.7885 C   0  0  0  0  0  0  0  0  0  0  0  0
   -3.1604    1.2032   -4.2425 C   0  0  0  0  0  0  0  0  0  0  0  0
   -3.2315   -0.1341   -4.6294 C   0  0  0  0  0  0  0  0  0  0  0  0
   -2.4492   -1.7637   -5.7890 H   0  0  0  0  0  0  0  0  0  0  0  0
   -0.6000   -0.3380   -6.7748 H   0  0  0  0  0  0  0  0  0  0  0  0
   -2.0604    3.0430   -4.5244 H   0  0  0  0  0  0  0  0  0  0  0  0
   -3.8796    1.5962   -3.5354 H   0  0  0  0  0  0  0  0  0  0  0  0
   -4.3097   -0.9751   -4.0538 N   0  0  0  0  0  0  0  0  0  0  0  0
   -5.0704   -0.4379   -3.2546 O   0  0  0  0  0  0  0  0  0  0  0  0
   -4.3613   -2.1445   -4.4185 O   0  0  0  0  0  0  0  0  0  0  0  0
   -0.2665    2.2238   -6.2327 N   0  0  0  0  0  0  0  0  0  0  0  0
    0.6891    2.3994   -6.8214 N   0  0  0  0  0  0  0  0  0  0  0  0
    2.2257   -0.0918   -6.3169 S   0  0  0  0  0  0  0  0  0  0  0  0
    3.9093    0.6455   -6.5866 C   0  0  0  0  0  0  0  0  0  0  0  0
    1.4163    0.5471   -7.4554 O   0  0  0  0  0  0  0  0  0  0  0  0
    1.7835    0.4156   -5.0057 O   0  0  0  0  0  0  0  0  0  0  0  0
    2.3721   -1.5356   -6.5034 O   0  0  0  0  0  0  0  0  0  0  0  0
    4.3907    0.2878   -7.7792 F   0  0  0  0  0  0  0  0  0  0  0  0
    3.8275    1.9848   -6.5362 F   0  0  0  0  0  0  0  0  0  0  0  0
    4.7482    0.2296   -5.6333 F   0  0  0  0  0  0  0  0  0  0  0  0
  1  6  2  0  0  0  0
  2  3  2  0  0  0  0
  2  1  1  0  0  0  0
  3  4  1  0  0  0  0
  4  9  1  0  0  0  0
  4  5  2  0  0  0  0
  5 10  1  0  0  0  0
  6  5  1  0  0  0  0
  6 11  1  0  0  0  0
  7  1  1  0  0  0  0
  8  2  1  0  0  0  0
 11 12  2  0  0  0  0
 13 11  2  0  0  0  0
 14  3  1  0  0  0  0
 15 14  2  0  0  0  0
 16 19  1  0  0  0  0
 17 22  1  0  0  0  0
 17 16  1  0  0  0  0
 17 23  1  0  0  0  0
 18 16  2  0  0  0  0
 20 16  2  0  0  0  0
 21 17  1  0  0  0  0
M  RAD  2  15   2  19   2
M  END
