Coordinates from ORCA-job p-NO2-Ph-N2-X-OTf-B3LYPG-6-31G_dp-scan-d09-49-n400
 OpenBabel08281820573D

 23 22  0  0  0  0  0  0  0  0999 V2000
   -1.8459   -0.6767   -5.0321 C   0  0  0  0  0  0  0  0  0  0  0  0
   -0.8484    0.2964   -5.1319 C   0  0  0  0  0  0  0  0  0  0  0  0
   -1.2909    1.6250   -5.0635 C   0  0  0  0  0  0  0  0  0  0  0  0
   -2.6253    2.0351   -4.8955 C   0  0  0  0  0  0  0  0  0  0  0  0
   -3.5869    1.0433   -4.8043 C   0  0  0  0  0  0  0  0  0  0  0  0
   -3.1733   -0.2912   -4.8741 C   0  0  0  0  0  0  0  0  0  0  0  0
   -1.5950   -1.7298   -5.0759 H   0  0  0  0  0  0  0  0  0  0  0  0
    0.2586    0.0412   -5.2478 H   0  0  0  0  0  0  0  0  0  0  0  0
   -2.8866    3.0863   -4.8475 H   0  0  0  0  0  0  0  0  0  0  0  0
   -4.6367    1.2739   -4.6785 H   0  0  0  0  0  0  0  0  0  0  0  0
   -4.2143   -1.3462   -4.7676 N   0  0  0  0  0  0  0  0  0  0  0  0
   -5.3750   -0.9717   -4.6270 O   0  0  0  0  0  0  0  0  0  0  0  0
   -3.8390   -2.5109   -4.8275 O   0  0  0  0  0  0  0  0  0  0  0  0
   -0.3166    2.6192   -5.1622 N   0  0  0  0  0  0  0  0  0  0  0  0
    0.6078    3.2241   -5.3466 N   0  0  0  0  0  0  0  0  0  0  0  0
    2.6436    0.7525   -5.9802 S   0  0  0  0  0  0  0  0  0  0  0  0
    3.4234   -0.1634   -7.3974 C   0  0  0  0  0  0  0  0  0  0  0  0
    1.8448    1.8161   -6.6790 O   0  0  0  0  0  0  0  0  0  0  0  0
    3.7463    1.2242   -5.1412 O   0  0  0  0  0  0  0  0  0  0  0  0
    1.7436   -0.2726   -5.3556 O   0  0  0  0  0  0  0  0  0  0  0  0
    2.4763   -0.6490   -8.2123 F   0  0  0  0  0  0  0  0  0  0  0  0
    4.2138    0.6573   -8.0965 F   0  0  0  0  0  0  0  0  0  0  0  0
    4.1552   -1.1819   -6.9340 F   0  0  0  0  0  0  0  0  0  0  0  0
  1  6  2  0  0  0  0
  2  3  2  0  0  0  0
  2  1  1  0  0  0  0
  3  4  1  0  0  0  0
  4  9  1  0  0  0  0
  4  5  2  0  0  0  0
  5 10  1  0  0  0  0
  6  5  1  0  0  0  0
  6 11  1  0  0  0  0
  7  1  1  0  0  0  0
  8  2  1  0  0  0  0
 11 12  2  0  0  0  0
 13 11  2  0  0  0  0
 14  3  1  0  0  0  0
 15 14  1  0  0  0  0
 16 20  2  0  0  0  0
 16 19  1  0  0  0  0
 17 23  1  0  0  0  0
 17 16  1  0  0  0  0
 18 16  2  0  0  0  0
 21 17  1  0  0  0  0
 22 17  1  0  0  0  0
M  RAD  3  14   2  15   3  19   2
M  END
