Coordinates from ORCA-job p-NO2-Ph-N2-X-OTf-B3LYPG-6-31G_dp-scan-d09-49-n400
 OpenBabel08281820583D

 23 22  0  0  0  0  0  0  0  0999 V2000
   -2.5608   -0.7818   -5.5295 C   0  0  0  0  0  0  0  0  0  0  0  0
   -1.6346   -0.2879   -6.4387 C   0  0  0  0  0  0  0  0  0  0  0  0
   -1.1315    0.9994   -6.2151 C   0  0  0  0  0  0  0  0  0  0  0  0
   -1.4871    1.7960   -5.1173 C   0  0  0  0  0  0  0  0  0  0  0  0
   -2.3987    1.2755   -4.2078 C   0  0  0  0  0  0  0  0  0  0  0  0
   -2.9231    0.0049   -4.4367 C   0  0  0  0  0  0  0  0  0  0  0  0
   -2.9906   -1.7685   -5.6443 H   0  0  0  0  0  0  0  0  0  0  0  0
   -1.2778   -0.8729   -7.2754 H   0  0  0  0  0  0  0  0  0  0  0  0
   -1.0495    2.7774   -4.9810 H   0  0  0  0  0  0  0  0  0  0  0  0
   -2.7095    1.8351   -3.3349 H   0  0  0  0  0  0  0  0  0  0  0  0
   -3.9072   -0.5351   -3.4706 N   0  0  0  0  0  0  0  0  0  0  0  0
   -4.1973    0.1747   -2.5122 O   0  0  0  0  0  0  0  0  0  0  0  0
   -4.3633   -1.6501   -3.7017 O   0  0  0  0  0  0  0  0  0  0  0  0
   -0.2520    1.5581   -7.1398 N   0  0  0  0  0  0  0  0  0  0  0  0
    0.3324    2.1867   -7.8589 N   0  0  0  0  0  0  0  0  0  0  0  0
    2.4992    0.0018   -7.1671 S   0  0  0  0  0  0  0  0  0  0  0  0
    2.8914    0.7250   -5.5009 C   0  0  0  0  0  0  0  0  0  0  0  0
    2.4880    1.2050   -8.0515 O   0  0  0  0  0  0  0  0  0  0  0  0
    1.1135   -0.5194   -6.9447 O   0  0  0  0  0  0  0  0  0  0  0  0
    3.5383   -0.9920   -7.4227 O   0  0  0  0  0  0  0  0  0  0  0  0
    4.0619    1.3638   -5.5050 F   0  0  0  0  0  0  0  0  0  0  0  0
    1.9242    1.6237   -5.1680 F   0  0  0  0  0  0  0  0  0  0  0  0
    2.9135   -0.2183   -4.5544 F   0  0  0  0  0  0  0  0  0  0  0  0
  1  6  2  0  0  0  0
  2  3  2  0  0  0  0
  2  1  1  0  0  0  0
  3  4  1  0  0  0  0
  4  9  1  0  0  0  0
  4  5  2  0  0  0  0
  5 10  1  0  0  0  0
  6  5  1  0  0  0  0
  6 11  1  0  0  0  0
  7  1  1  0  0  0  0
  8  2  1  0  0  0  0
 11 12  2  0  0  0  0
 13 11  2  0  0  0  0
 14  3  1  0  0  0  0
 15 14  1  0  0  0  0
 16 19  1  0  0  0  0
 16 17  1  0  0  0  0
 17 22  1  0  0  0  0
 17 23  1  0  0  0  0
 18 16  2  0  0  0  0
 20 16  2  0  0  0  0
 21 17  1  0  0  0  0
M  RAD  3  14   2  15   3  19   2
M  END
