Coordinates from ORCA-job p-NO2-Ph-N2-X-OTf-B3LYPG-6-31G_dp-scan-d09-49-n400
 OpenBabel08281820573D

 23 22  0  0  0  0  0  0  0  0999 V2000
   -2.0418   -0.7299   -5.0586 C   0  0  0  0  0  0  0  0  0  0  0  0
   -0.9976    0.1663   -5.2742 C   0  0  0  0  0  0  0  0  0  0  0  0
   -1.3064    1.5327   -5.1884 C   0  0  0  0  0  0  0  0  0  0  0  0
   -2.5833    2.0298   -4.8889 C   0  0  0  0  0  0  0  0  0  0  0  0
   -3.6107    1.1189   -4.6898 C   0  0  0  0  0  0  0  0  0  0  0  0
   -3.3158   -0.2419   -4.7785 C   0  0  0  0  0  0  0  0  0  0  0  0
   -1.8727   -1.7987   -5.1073 H   0  0  0  0  0  0  0  0  0  0  0  0
    0.0141   -0.1851   -5.4837 H   0  0  0  0  0  0  0  0  0  0  0  0
   -2.7554    3.0983   -4.8253 H   0  0  0  0  0  0  0  0  0  0  0  0
   -4.6202    1.4363   -4.4638 H   0  0  0  0  0  0  0  0  0  0  0  0
   -4.4158   -1.2129   -4.5564 N   0  0  0  0  0  0  0  0  0  0  0  0
   -5.5268   -0.7510   -4.3129 O   0  0  0  0  0  0  0  0  0  0  0  0
   -4.1352   -2.4036   -4.6329 O   0  0  0  0  0  0  0  0  0  0  0  0
   -0.2896    2.4754   -5.3897 N   0  0  0  0  0  0  0  0  0  0  0  0
    0.7105    2.8646   -5.7512 N   0  0  0  0  0  0  0  0  0  0  0  0
    2.5345    0.5301   -6.0678 S   0  0  0  0  0  0  0  0  0  0  0  0
    3.8577    0.0981   -7.3011 C   0  0  0  0  0  0  0  0  0  0  0  0
    1.5472    1.3149   -6.9253 O   0  0  0  0  0  0  0  0  0  0  0  0
    3.1795    1.3503   -5.0345 O   0  0  0  0  0  0  0  0  0  0  0  0
    1.9559   -0.7644   -5.6460 O   0  0  0  0  0  0  0  0  0  0  0  0
    3.3379   -0.6126   -8.3076 F   0  0  0  0  0  0  0  0  0  0  0  0
    4.4067    1.2124   -7.7943 F   0  0  0  0  0  0  0  0  0  0  0  0
    4.8065   -0.6269   -6.7000 F   0  0  0  0  0  0  0  0  0  0  0  0
  1  6  2  0  0  0  0
  2  3  2  0  0  0  0
  2  1  1  0  0  0  0
  3  4  1  0  0  0  0
  4  9  1  0  0  0  0
  4  5  2  0  0  0  0
  5 10  1  0  0  0  0
  6  5  1  0  0  0  0
  6 11  1  0  0  0  0
  7  1  1  0  0  0  0
  8  2  1  0  0  0  0
 11 12  2  0  0  0  0
 13 11  2  0  0  0  0
 14  3  1  0  0  0  0
 15 14  1  0  0  0  0
 16 20  2  0  0  0  0
 16 19  1  0  0  0  0
 17 23  1  0  0  0  0
 17 16  1  0  0  0  0
 18 16  2  0  0  0  0
 21 17  1  0  0  0  0
 22 17  1  0  0  0  0
M  RAD  3  14   2  15   3  19   2
M  END
