Coordinates from ORCA-job p-NO2-Ph-N2-X-OTf-B3LYPG-6-31G_dp-scan-d09-49-n400
 OpenBabel08281820573D

 23 22  0  0  0  0  0  0  0  0999 V2000
   -1.6408   -0.5727   -4.9651 C   0  0  0  0  0  0  0  0  0  0  0  0
   -0.6681    0.4568   -4.9620 C   0  0  0  0  0  0  0  0  0  0  0  0
   -1.2669    1.7249   -4.9763 C   0  0  0  0  0  0  0  0  0  0  0  0
   -2.6431    2.0642   -4.9918 C   0  0  0  0  0  0  0  0  0  0  0  0
   -3.5293    1.0098   -4.9947 C   0  0  0  0  0  0  0  0  0  0  0  0
   -3.0001   -0.2930   -4.9799 C   0  0  0  0  0  0  0  0  0  0  0  0
   -1.3343   -1.6137   -4.9566 H   0  0  0  0  0  0  0  0  0  0  0  0
    0.8999    0.1264   -4.9883 H   0  0  0  0  0  0  0  0  0  0  0  0
   -2.9818    3.0952   -5.0035 H   0  0  0  0  0  0  0  0  0  0  0  0
   -4.6013    1.1565   -5.0079 H   0  0  0  0  0  0  0  0  0  0  0  0
   -3.9697   -1.4209   -4.9807 N   0  0  0  0  0  0  0  0  0  0  0  0
   -5.1648   -1.1333   -4.9969 O   0  0  0  0  0  0  0  0  0  0  0  0
   -3.5140   -2.5586   -4.9649 O   0  0  0  0  0  0  0  0  0  0  0  0
   -0.3810    2.8043   -4.9662 N   0  0  0  0  0  0  0  0  0  0  0  0
    0.3571    3.6379   -4.9585 N   0  0  0  0  0  0  0  0  0  0  0  0
    2.7937    0.7388   -5.9058 S   0  0  0  0  0  0  0  0  0  0  0  0
    2.8442   -0.2989   -7.4480 C   0  0  0  0  0  0  0  0  0  0  0  0
    2.0801    1.9666   -6.2808 O   0  0  0  0  0  0  0  0  0  0  0  0
    4.1515    0.7976   -5.3921 O   0  0  0  0  0  0  0  0  0  0  0  0
    1.8917   -0.1526   -4.9862 O   0  0  0  0  0  0  0  0  0  0  0  0
    1.5961   -0.5134   -7.8831 F   0  0  0  0  0  0  0  0  0  0  0  0
    3.5315    0.3487   -8.3909 F   0  0  0  0  0  0  0  0  0  0  0  0
    3.4288   -1.4697   -7.1981 F   0  0  0  0  0  0  0  0  0  0  0  0
  1  2  1  0  0  0  0
  1  7  1  0  0  0  0
  3 14  1  0  0  0  0
  3  2  2  0  0  0  0
  4  3  1  0  0  0  0
  5  4  2  0  0  0  0
  5  6  1  0  0  0  0
  6  1  2  0  0  0  0
  8 20  1  0  0  0  0
  9  4  1  0  0  0  0
 10  5  1  0  0  0  0
 11  6  1  0  0  0  0
 11 13  2  0  0  0  0
 12 11  2  0  0  0  0
 14 15  1  0  0  0  0
 16 19  2  0  0  0  0
 16 20  1  0  0  0  0
 17 23  1  0  0  0  0
 17 16  1  0  0  0  0
 18 16  2  0  0  0  0
 21 17  1  0  0  0  0
 22 17  1  0  0  0  0
M  RAD  3   2   2  14   2  15   3
M  END
