Coordinates from ORCA-job p-NO2-Ph-N2-X-OTf-B3LYPG-6-31G_dp-scan-d09-49-n400
 OpenBabel08281820573D

 23 22  0  0  0  0  0  0  0  0999 V2000
   -2.4007   -0.7158   -5.5678 C   0  0  0  0  0  0  0  0  0  0  0  0
   -1.3757    0.0340   -6.1319 C   0  0  0  0  0  0  0  0  0  0  0  0
   -1.2462    1.3689   -5.7191 C   0  0  0  0  0  0  0  0  0  0  0  0
   -2.0881    1.9746   -4.7795 C   0  0  0  0  0  0  0  0  0  0  0  0
   -3.0981    1.2072   -4.2129 C   0  0  0  0  0  0  0  0  0  0  0  0
   -3.2341   -0.1180   -4.6232 C   0  0  0  0  0  0  0  0  0  0  0  0
   -2.5562   -1.7514   -5.8413 H   0  0  0  0  0  0  0  0  0  0  0  0
   -0.6854   -0.3742   -6.8608 H   0  0  0  0  0  0  0  0  0  0  0  0
   -1.9413    3.0112   -4.5002 H   0  0  0  0  0  0  0  0  0  0  0  0
   -3.7768    1.6122   -3.4733 H   0  0  0  0  0  0  0  0  0  0  0  0
   -4.3240   -0.9293   -4.0277 N   0  0  0  0  0  0  0  0  0  0  0  0
   -5.0352   -0.3814   -3.1911 O   0  0  0  0  0  0  0  0  0  0  0  0
   -4.4366   -2.0862   -4.4181 O   0  0  0  0  0  0  0  0  0  0  0  0
   -0.2420    2.1556   -6.2929 N   0  0  0  0  0  0  0  0  0  0  0  0
    0.7049    2.3082   -6.9004 N   0  0  0  0  0  0  0  0  0  0  0  0
    2.2520   -0.1611   -6.3318 S   0  0  0  0  0  0  0  0  0  0  0  0
    3.8685    0.7328   -6.5310 C   0  0  0  0  0  0  0  0  0  0  0  0
    1.4258    0.4232   -7.4868 O   0  0  0  0  0  0  0  0  0  0  0  0
    1.7241    0.2856   -5.0298 O   0  0  0  0  0  0  0  0  0  0  0  0
    2.5477   -1.5799   -6.5298 O   0  0  0  0  0  0  0  0  0  0  0  0
    4.4202    0.4488   -7.7130 F   0  0  0  0  0  0  0  0  0  0  0  0
    3.6645    2.0599   -6.4580 F   0  0  0  0  0  0  0  0  0  0  0  0
    4.7118    0.3760   -5.5579 F   0  0  0  0  0  0  0  0  0  0  0  0
  1  6  2  0  0  0  0
  2  3  2  0  0  0  0
  2  1  1  0  0  0  0
  3  4  1  0  0  0  0
  4  9  1  0  0  0  0
  4  5  2  0  0  0  0
  5 10  1  0  0  0  0
  6  5  1  0  0  0  0
  6 11  1  0  0  0  0
  7  1  1  0  0  0  0
  8  2  1  0  0  0  0
 11 12  2  0  0  0  0
 13 11  2  0  0  0  0
 14  3  1  0  0  0  0
 15 14  2  0  0  0  0
 16 19  1  0  0  0  0
 17 22  1  0  0  0  0
 17 16  1  0  0  0  0
 17 23  1  0  0  0  0
 18 16  2  0  0  0  0
 20 16  2  0  0  0  0
 21 17  1  0  0  0  0
M  RAD  2  15   2  19   2
M  END
