Coordinates from ORCA-job p-NO2-Ph-N2-X-OTf-B3LYPG-6-31G_dp-scan-d09-49-n400
 OpenBabel08281820583D

 23 22  0  0  0  0  0  0  0  0999 V2000
   -2.4544   -0.7096   -5.6199 C   0  0  0  0  0  0  0  0  0  0  0  0
   -1.4370    0.0175   -6.2248 C   0  0  0  0  0  0  0  0  0  0  0  0
   -1.2343    1.3353   -5.7888 C   0  0  0  0  0  0  0  0  0  0  0  0
   -1.9976    1.9482   -4.7894 C   0  0  0  0  0  0  0  0  0  0  0  0
   -2.9987    1.2015   -4.1806 C   0  0  0  0  0  0  0  0  0  0  0  0
   -3.2076   -0.1071   -4.6127 C   0  0  0  0  0  0  0  0  0  0  0  0
   -2.6638   -1.7318   -5.9073 H   0  0  0  0  0  0  0  0  0  0  0  0
   -0.8056   -0.3974   -7.0010 H   0  0  0  0  0  0  0  0  0  0  0  0
   -1.7979    2.9720   -4.4962 H   0  0  0  0  0  0  0  0  0  0  0  0
   -3.6168    1.6112   -3.3921 H   0  0  0  0  0  0  0  0  0  0  0  0
   -4.2894   -0.8941   -3.9723 N   0  0  0  0  0  0  0  0  0  0  0  0
   -4.9272   -0.3443   -3.0797 O   0  0  0  0  0  0  0  0  0  0  0  0
   -4.4698   -2.0347   -4.3851 O   0  0  0  0  0  0  0  0  0  0  0  0
   -0.2397    2.0951   -6.4104 N   0  0  0  0  0  0  0  0  0  0  0  0
    0.6886    2.2474   -7.0430 N   0  0  0  0  0  0  0  0  0  0  0  0
    2.2441   -0.2081   -6.3601 S   0  0  0  0  0  0  0  0  0  0  0  0
    3.8036    0.8002   -6.4206 C   0  0  0  0  0  0  0  0  0  0  0  0
    1.4643    0.3414   -7.5600 O   0  0  0  0  0  0  0  0  0  0  0  0
    1.5958    0.1777   -5.0917 O   0  0  0  0  0  0  0  0  0  0  0  0
    2.6622   -1.5969   -6.5497 O   0  0  0  0  0  0  0  0  0  0  0  0
    4.4507    0.6031   -7.5716 F   0  0  0  0  0  0  0  0  0  0  0  0
    3.5037    2.1087   -6.3153 F   0  0  0  0  0  0  0  0  0  0  0  0
    4.6061    0.4658   -5.4058 F   0  0  0  0  0  0  0  0  0  0  0  0
  1  6  2  0  0  0  0
  2  3  2  0  0  0  0
  2  1  1  0  0  0  0
  3  4  1  0  0  0  0
  4  9  1  0  0  0  0
  4  5  2  0  0  0  0
  5 10  1  0  0  0  0
  6  5  1  0  0  0  0
  6 11  1  0  0  0  0
  7  1  1  0  0  0  0
  8  2  1  0  0  0  0
 11 12  2  0  0  0  0
 13 11  2  0  0  0  0
 14  3  1  0  0  0  0
 15 14  2  0  0  0  0
 16 19  1  0  0  0  0
 17 16  1  0  0  0  0
 17 22  1  0  0  0  0
 17 23  1  0  0  0  0
 18 16  2  0  0  0  0
 20 16  2  0  0  0  0
 21 17  1  0  0  0  0
M  RAD  2  15   2  19   2
M  END
