Coordinates from ORCA-job p-NO2-Ph-N2-X-OTf-B3LYPG-6-31G_dp-scan-d09-49-n400
 OpenBabel08281820573D

 23 22  0  0  0  0  0  0  0  0999 V2000
   -2.2790   -0.7136   -5.5215 C   0  0  0  0  0  0  0  0  0  0  0  0
   -1.2947    0.1054   -6.0628 C   0  0  0  0  0  0  0  0  0  0  0  0
   -1.2982    1.4578   -5.6856 C   0  0  0  0  0  0  0  0  0  0  0  0
   -2.2330    2.0126   -4.8031 C   0  0  0  0  0  0  0  0  0  0  0  0
   -3.2030    1.1785   -4.2627 C   0  0  0  0  0  0  0  0  0  0  0  0
   -3.2058   -0.1644   -4.6371 C   0  0  0  0  0  0  0  0  0  0  0  0
   -2.3302   -1.7663   -5.7693 H   0  0  0  0  0  0  0  0  0  0  0  0
   -0.5408   -0.2715   -6.7447 H   0  0  0  0  0  0  0  0  0  0  0  0
   -2.1858    3.0647   -4.5471 H   0  0  0  0  0  0  0  0  0  0  0  0
   -3.9492    1.5434   -3.5686 H   0  0  0  0  0  0  0  0  0  0  0  0
   -4.2505   -1.0499   -4.0658 N   0  0  0  0  0  0  0  0  0  0  0  0
   -5.0440   -0.5416   -3.2796 O   0  0  0  0  0  0  0  0  0  0  0  0
   -4.2441   -2.2233   -4.4208 O   0  0  0  0  0  0  0  0  0  0  0  0
   -0.3316    2.3176   -6.2190 N   0  0  0  0  0  0  0  0  0  0  0  0
    0.6217    2.5469   -6.7915 N   0  0  0  0  0  0  0  0  0  0  0  0
    2.1773    0.0483   -6.2786 S   0  0  0  0  0  0  0  0  0  0  0  0
    3.9460    0.5017   -6.6178 C   0  0  0  0  0  0  0  0  0  0  0  0
    1.4391    0.7354   -7.4349 O   0  0  0  0  0  0  0  0  0  0  0  0
    1.8470    0.6769   -4.9868 O   0  0  0  0  0  0  0  0  0  0  0  0
    2.0964   -1.4108   -6.3869 O   0  0  0  0  0  0  0  0  0  0  0  0
    4.3300    0.0230   -7.8038 F   0  0  0  0  0  0  0  0  0  0  0  0
    4.0771    1.8357   -6.6249 F   0  0  0  0  0  0  0  0  0  0  0  0
    4.7346   -0.0055   -5.6653 F   0  0  0  0  0  0  0  0  0  0  0  0
  1  6  2  0  0  0  0
  2  3  2  0  0  0  0
  2  1  1  0  0  0  0
  3  4  1  0  0  0  0
  4  9  1  0  0  0  0
  4  5  2  0  0  0  0
  5 10  1  0  0  0  0
  6  5  1  0  0  0  0
  6 11  1  0  0  0  0
  7  1  1  0  0  0  0
  8  2  1  0  0  0  0
 11 12  2  0  0  0  0
 13 11  2  0  0  0  0
 14  3  1  0  0  0  0
 15 14  2  0  0  0  0
 16 19  1  0  0  0  0
 17 16  1  0  0  0  0
 17 23  1  0  0  0  0
 18 16  2  0  0  0  0
 20 16  2  0  0  0  0
 21 17  1  0  0  0  0
 22 17  1  0  0  0  0
M  RAD  2  15   2  19   2
M  END
