Coordinates from ORCA-job p-NO2-Ph-N2-X-OTf-B3LYPG-6-31G_dp-scan-d09-49-n400
 OpenBabel08281820583D

 23 22  0  0  0  0  0  0  0  0999 V2000
   -2.7344   -0.6663   -5.8012 C   0  0  0  0  0  0  0  0  0  0  0  0
   -1.7473   -0.0201   -6.5327 C   0  0  0  0  0  0  0  0  0  0  0  0
   -1.2336    1.1776   -6.0145 C   0  0  0  0  0  0  0  0  0  0  0  0
   -1.6676    1.7551   -4.8161 C   0  0  0  0  0  0  0  0  0  0  0  0
   -2.6430    1.0860   -4.0891 C   0  0  0  0  0  0  0  0  0  0  0  0
   -3.1595   -0.1050   -4.5974 C   0  0  0  0  0  0  0  0  0  0  0  0
   -3.1687   -1.5977   -6.1406 H   0  0  0  0  0  0  0  0  0  0  0  0
   -1.3724   -0.4220   -7.4655 H   0  0  0  0  0  0  0  0  0  0  0  0
   -1.2337    2.6821   -4.4620 H   0  0  0  0  0  0  0  0  0  0  0  0
   -3.0102    1.4687   -3.1461 H   0  0  0  0  0  0  0  0  0  0  0  0
   -4.2129   -0.8028   -3.8260 N   0  0  0  0  0  0  0  0  0  0  0  0
   -4.5679   -0.2857   -2.7710 O   0  0  0  0  0  0  0  0  0  0  0  0
   -4.6582   -1.8428   -4.3008 O   0  0  0  0  0  0  0  0  0  0  0  0
   -0.2727    1.8467   -6.7649 N   0  0  0  0  0  0  0  0  0  0  0  0
    0.5932    2.0851   -7.4436 N   0  0  0  0  0  0  0  0  0  0  0  0
    2.2737   -0.1983   -6.3500 S   0  0  0  0  0  0  0  0  0  0  0  0
    3.6823    0.9924   -6.1336 C   0  0  0  0  0  0  0  0  0  0  0  0
    1.7190    0.2048   -7.7045 O   0  0  0  0  0  0  0  0  0  0  0  0
    1.3348    0.1652   -5.2615 O   0  0  0  0  0  0  0  0  0  0  0  0
    2.8793   -1.5299   -6.3258 O   0  0  0  0  0  0  0  0  0  0  0  0
    4.5867    0.8461   -7.1050 F   0  0  0  0  0  0  0  0  0  0  0  0
    3.2139    2.2582   -6.1742 F   0  0  0  0  0  0  0  0  0  0  0  0
    4.2788    0.8036   -4.9521 F   0  0  0  0  0  0  0  0  0  0  0  0
  1  6  2  0  0  0  0
  2  3  2  0  0  0  0
  2  1  1  0  0  0  0
  3  4  1  0  0  0  0
  4  9  1  0  0  0  0
  4  5  2  0  0  0  0
  5 10  1  0  0  0  0
  6  5  1  0  0  0  0
  6 11  1  0  0  0  0
  7  1  1  0  0  0  0
  8  2  1  0  0  0  0
 11 12  2  0  0  0  0
 13 11  2  0  0  0  0
 14  3  1  0  0  0  0
 15 14  1  0  0  0  0
 16 20  2  0  0  0  0
 16 17  1  0  0  0  0
 16 19  1  0  0  0  0
 17 23  1  0  0  0  0
 18 16  2  0  0  0  0
 21 17  1  0  0  0  0
 22 17  1  0  0  0  0
M  RAD  3  14   2  15   3  19   2
M  END
