Coordinates from ORCA-job p-NO2-Ph-N2-X-OTf-B3LYPG-6-31G_dp-scan-d09-49-n400
 OpenBabel08281820573D

 23 22  0  0  0  0  0  0  0  0999 V2000
   -1.8116   -0.6629   -5.0315 C   0  0  0  0  0  0  0  0  0  0  0  0
   -0.8211    0.3205   -5.1200 C   0  0  0  0  0  0  0  0  0  0  0  0
   -1.2856    1.6414   -5.0507 C   0  0  0  0  0  0  0  0  0  0  0  0
   -2.6265    2.0392   -4.8944 C   0  0  0  0  0  0  0  0  0  0  0  0
   -3.5758    1.0360   -4.8130 C   0  0  0  0  0  0  0  0  0  0  0  0
   -3.1443   -0.2938   -4.8831 C   0  0  0  0  0  0  0  0  0  0  0  0
   -1.5497   -1.7135   -5.0768 H   0  0  0  0  0  0  0  0  0  0  0  0
    0.3116    0.0738   -5.2334 H   0  0  0  0  0  0  0  0  0  0  0  0
   -2.9005    3.0872   -4.8467 H   0  0  0  0  0  0  0  0  0  0  0  0
   -4.6295    1.2529   -4.6954 H   0  0  0  0  0  0  0  0  0  0  0  0
   -4.1744   -1.3610   -4.7884 N   0  0  0  0  0  0  0  0  0  0  0  0
   -5.3405   -1.0001   -4.6563 O   0  0  0  0  0  0  0  0  0  0  0  0
   -3.7858   -2.5213   -4.8489 O   0  0  0  0  0  0  0  0  0  0  0  0
   -0.3211    2.6453   -5.1388 N   0  0  0  0  0  0  0  0  0  0  0  0
    0.5786    3.2904   -5.2921 N   0  0  0  0  0  0  0  0  0  0  0  0
    2.6525    0.7557   -5.9715 S   0  0  0  0  0  0  0  0  0  0  0  0
    3.3472   -0.1899   -7.4125 C   0  0  0  0  0  0  0  0  0  0  0  0
    1.8908    1.8635   -6.6304 O   0  0  0  0  0  0  0  0  0  0  0  0
    3.7977    1.1485   -5.1500 O   0  0  0  0  0  0  0  0  0  0  0  0
    1.7153   -0.2370   -5.3356 O   0  0  0  0  0  0  0  0  0  0  0  0
    2.3556   -0.6107   -8.2109 F   0  0  0  0  0  0  0  0  0  0  0  0
    4.1683    0.5911   -8.1218 F   0  0  0  0  0  0  0  0  0  0  0  0
    4.0282   -1.2543   -6.9760 F   0  0  0  0  0  0  0  0  0  0  0  0
  1  6  2  0  0  0  0
  2  3  2  0  0  0  0
  2  1  1  0  0  0  0
  3  4  1  0  0  0  0
  4  9  1  0  0  0  0
  4  5  2  0  0  0  0
  5 10  1  0  0  0  0
  6  5  1  0  0  0  0
  6 11  1  0  0  0  0
  7  1  1  0  0  0  0
  8  2  1  0  0  0  0
 11 12  2  0  0  0  0
 13 11  2  0  0  0  0
 14  3  1  0  0  0  0
 15 14  1  0  0  0  0
 16 20  2  0  0  0  0
 16 19  1  0  0  0  0
 17 23  1  0  0  0  0
 17 16  1  0  0  0  0
 18 16  2  0  0  0  0
 21 17  1  0  0  0  0
 22 17  1  0  0  0  0
M  RAD  3  14   2  15   3  19   2
M  END
