Coordinates from ORCA-job p-NO2-Ph-N2-X-OTf-B3LYPG-6-31G_dp-scan-d09-49-n400
 OpenBabel08281820573D

 23 22  0  0  0  0  0  0  0  0999 V2000
   -1.9695   -0.7133   -5.0245 C   0  0  0  0  0  0  0  0  0  0  0  0
   -0.9392    0.2121   -5.1810 C   0  0  0  0  0  0  0  0  0  0  0  0
   -1.2985    1.5666   -5.1215 C   0  0  0  0  0  0  0  0  0  0  0  0
   -2.6044    2.0307   -4.9019 C   0  0  0  0  0  0  0  0  0  0  0  0
   -3.6129    1.0896   -4.7597 C   0  0  0  0  0  0  0  0  0  0  0  0
   -3.2715   -0.2626   -4.8234 C   0  0  0  0  0  0  0  0  0  0  0  0
   -1.7670   -1.7769   -5.0584 H   0  0  0  0  0  0  0  0  0  0  0  0
    0.1028   -0.1070   -5.3276 H   0  0  0  0  0  0  0  0  0  0  0  0
   -2.8121    3.0938   -4.8561 H   0  0  0  0  0  0  0  0  0  0  0  0
   -4.6435    1.3764   -4.5966 H   0  0  0  0  0  0  0  0  0  0  0  0
   -4.3541   -1.2651   -4.6613 N   0  0  0  0  0  0  0  0  0  0  0  0
   -5.4904   -0.8352   -4.4854 O   0  0  0  0  0  0  0  0  0  0  0  0
   -4.0350   -2.4472   -4.7153 O   0  0  0  0  0  0  0  0  0  0  0  0
   -0.2938    2.5304   -5.2701 N   0  0  0  0  0  0  0  0  0  0  0  0
    0.6964    2.9774   -5.5784 N   0  0  0  0  0  0  0  0  0  0  0  0
    2.5718    0.6359   -6.0294 S   0  0  0  0  0  0  0  0  0  0  0  0
    3.7129   -0.0111   -7.3487 C   0  0  0  0  0  0  0  0  0  0  0  0
    1.6108    1.4902   -6.8403 O   0  0  0  0  0  0  0  0  0  0  0  0
    3.4052    1.3995   -5.0951 O   0  0  0  0  0  0  0  0  0  0  0  0
    1.8892   -0.5685   -5.4929 O   0  0  0  0  0  0  0  0  0  0  0  0
    3.0198   -0.6986   -8.2638 F   0  0  0  0  0  0  0  0  0  0  0  0
    4.3401    1.0035   -7.9515 F   0  0  0  0  0  0  0  0  0  0  0  0
    4.6224   -0.8193   -6.7953 F   0  0  0  0  0  0  0  0  0  0  0  0
  1  6  2  0  0  0  0
  2  3  2  0  0  0  0
  2  1  1  0  0  0  0
  3  4  1  0  0  0  0
  4  9  1  0  0  0  0
  4  5  2  0  0  0  0
  5 10  1  0  0  0  0
  6  5  1  0  0  0  0
  6 11  1  0  0  0  0
  7  1  1  0  0  0  0
  8  2  1  0  0  0  0
 11 12  2  0  0  0  0
 13 11  2  0  0  0  0
 14  3  1  0  0  0  0
 15 14  1  0  0  0  0
 16 20  2  0  0  0  0
 16 19  1  0  0  0  0
 17 23  1  0  0  0  0
 17 16  1  0  0  0  0
 18 16  2  0  0  0  0
 21 17  1  0  0  0  0
 22 17  1  0  0  0  0
M  RAD  3  14   2  15   3  19   2
M  END
