Coordinates from ORCA-job p-NO2-Ph-N2-X-OTf-B3LYPG-6-31G_dp-scan-d09-49-n400
 OpenBabel08281820573D

 23 22  0  0  0  0  0  0  0  0999 V2000
   -2.3805   -0.7170   -5.5518 C   0  0  0  0  0  0  0  0  0  0  0  0
   -1.3564    0.0422   -6.1051 C   0  0  0  0  0  0  0  0  0  0  0  0
   -1.2521    1.3822   -5.7013 C   0  0  0  0  0  0  0  0  0  0  0  0
   -2.1177    1.9832   -4.7802 C   0  0  0  0  0  0  0  0  0  0  0  0
   -3.1272    1.2070   -4.2250 C   0  0  0  0  0  0  0  0  0  0  0  0
   -3.2381   -0.1232   -4.6267 C   0  0  0  0  0  0  0  0  0  0  0  0
   -2.5170   -1.7570   -5.8194 H   0  0  0  0  0  0  0  0  0  0  0  0
   -0.6490   -0.3625   -6.8198 H   0  0  0  0  0  0  0  0  0  0  0  0
   -1.9893    3.0238   -4.5064 H   0  0  0  0  0  0  0  0  0  0  0  0
   -3.8241    1.6086   -3.5005 H   0  0  0  0  0  0  0  0  0  0  0  0
   -4.3269   -0.9446   -4.0428 N   0  0  0  0  0  0  0  0  0  0  0  0
   -5.0592   -0.3998   -3.2226 O   0  0  0  0  0  0  0  0  0  0  0  0
   -4.4139   -2.1076   -4.4215 O   0  0  0  0  0  0  0  0  0  0  0  0
   -0.2478    2.1795   -6.2610 N   0  0  0  0  0  0  0  0  0  0  0  0
    0.7040    2.3379   -6.8600 N   0  0  0  0  0  0  0  0  0  0  0  0
    2.2481   -0.1377   -6.3241 S   0  0  0  0  0  0  0  0  0  0  0  0
    3.8879    0.7030   -6.5604 C   0  0  0  0  0  0  0  0  0  0  0  0
    1.4192    0.4646   -7.4685 O   0  0  0  0  0  0  0  0  0  0  0  0
    1.7575    0.3319   -5.0159 O   0  0  0  0  0  0  0  0  0  0  0  0
    2.4907   -1.5669   -6.5197 O   0  0  0  0  0  0  0  0  0  0  0  0
    4.4083    0.3892   -7.7490 F   0  0  0  0  0  0  0  0  0  0  0  0
    3.7260    2.0356   -6.4977 F   0  0  0  0  0  0  0  0  0  0  0  0
    4.7367    0.3288   -5.5987 F   0  0  0  0  0  0  0  0  0  0  0  0
  1  6  2  0  0  0  0
  2  3  2  0  0  0  0
  2  1  1  0  0  0  0
  3  4  1  0  0  0  0
  4  9  1  0  0  0  0
  4  5  2  0  0  0  0
  5 10  1  0  0  0  0
  6  5  1  0  0  0  0
  6 11  1  0  0  0  0
  7  1  1  0  0  0  0
  8  2  1  0  0  0  0
 11 12  2  0  0  0  0
 13 11  2  0  0  0  0
 14  3  1  0  0  0  0
 15 14  2  0  0  0  0
 16 19  1  0  0  0  0
 17 22  1  0  0  0  0
 17 16  1  0  0  0  0
 17 23  1  0  0  0  0
 18 16  2  0  0  0  0
 20 16  2  0  0  0  0
 21 17  1  0  0  0  0
M  RAD  2  15   2  19   2
M  END
