Coordinates from ORCA-job p-NO2-Ph-N2-X-OTf-B3LYPG-6-31G_dp-scan-d09-49-n400
 OpenBabel08281820583D

 23 22  0  0  0  0  0  0  0  0999 V2000
   -2.5942   -0.6886   -5.7296 C   0  0  0  0  0  0  0  0  0  0  0  0
   -1.5913   -0.0002   -6.3992 C   0  0  0  0  0  0  0  0  0  0  0  0
   -1.2298    1.2622   -5.9066 C   0  0  0  0  0  0  0  0  0  0  0  0
   -1.8275    1.8616   -4.7932 C   0  0  0  0  0  0  0  0  0  0  0  0
   -2.8141    1.1505   -4.1217 C   0  0  0  0  0  0  0  0  0  0  0  0
   -3.1797   -0.1040   -4.6066 C   0  0  0  0  0  0  0  0  0  0  0  0
   -2.9186   -1.6686   -6.0541 H   0  0  0  0  0  0  0  0  0  0  0  0
   -1.0905   -0.4110   -7.2665 H   0  0  0  0  0  0  0  0  0  0  0  0
   -1.5117    2.8429   -4.4605 H   0  0  0  0  0  0  0  0  0  0  0  0
   -3.3047    1.5488   -3.2433 H   0  0  0  0  0  0  0  0  0  0  0  0
   -4.2478   -0.8482   -3.8985 N   0  0  0  0  0  0  0  0  0  0  0  0
   -4.7395   -0.3140   -2.9090 O   0  0  0  0  0  0  0  0  0  0  0  0
   -4.5655   -1.9407   -4.3567 O   0  0  0  0  0  0  0  0  0  0  0  0
   -0.2529    1.9789   -6.5981 N   0  0  0  0  0  0  0  0  0  0  0  0
    0.6503    2.1454   -7.2577 N   0  0  0  0  0  0  0  0  0  0  0  0
    2.2551   -0.2197   -6.3380 S   0  0  0  0  0  0  0  0  0  0  0  0
    3.7330    0.9049   -6.2762 C   0  0  0  0  0  0  0  0  0  0  0  0
    1.5620    0.2324   -7.6223 O   0  0  0  0  0  0  0  0  0  0  0  0
    1.4598    0.1564   -5.1500 O   0  0  0  0  0  0  0  0  0  0  0  0
    2.8006   -1.5743   -6.4219 O   0  0  0  0  0  0  0  0  0  0  0  0
    4.5057    0.7365   -7.3515 F   0  0  0  0  0  0  0  0  0  0  0  0
    3.3263    2.1903   -6.2390 F   0  0  0  0  0  0  0  0  0  0  0  0
    4.4542    0.6596   -5.1781 F   0  0  0  0  0  0  0  0  0  0  0  0
  1  6  2  0  0  0  0
  2  3  2  0  0  0  0
  2  1  1  0  0  0  0
  3  4  1  0  0  0  0
  4  9  1  0  0  0  0
  4  5  2  0  0  0  0
  5 10  1  0  0  0  0
  6  5  1  0  0  0  0
  6 11  1  0  0  0  0
  7  1  1  0  0  0  0
  8  2  1  0  0  0  0
 11 12  2  0  0  0  0
 13 11  2  0  0  0  0
 14  3  1  0  0  0  0
 15 14  1  0  0  0  0
 16 17  1  0  0  0  0
 16 19  1  0  0  0  0
 17 22  1  0  0  0  0
 17 23  1  0  0  0  0
 18 16  2  0  0  0  0
 20 16  2  0  0  0  0
 21 17  1  0  0  0  0
M  RAD  3  14   2  15   3  19   2
M  END
