Coordinates from ORCA-job p-NO2-Ph-N2-X-OTf-B3LYPG-6-31G_dp-scan-d09-49-n400
 OpenBabel08281820573D

 23 22  0  0  0  0  0  0  0  0999 V2000
   -2.0114   -0.7237   -5.0309 C   0  0  0  0  0  0  0  0  0  0  0  0
   -0.9711    0.1836   -5.2189 C   0  0  0  0  0  0  0  0  0  0  0  0
   -1.3012    1.5459   -5.1541 C   0  0  0  0  0  0  0  0  0  0  0  0
   -2.5929    2.0304   -4.9004 C   0  0  0  0  0  0  0  0  0  0  0  0
   -3.6146    1.1080   -4.7285 C   0  0  0  0  0  0  0  0  0  0  0  0
   -3.2998   -0.2497   -4.7967 C   0  0  0  0  0  0  0  0  0  0  0  0
   -1.8278   -1.7907   -5.0660 H   0  0  0  0  0  0  0  0  0  0  0  0
    0.0540   -0.1568   -5.3925 H   0  0  0  0  0  0  0  0  0  0  0  0
   -2.7804    3.0971   -4.8513 H   0  0  0  0  0  0  0  0  0  0  0  0
   -4.6351    1.4140   -4.5387 H   0  0  0  0  0  0  0  0  0  0  0  0
   -4.3946   -1.2328   -4.6026 N   0  0  0  0  0  0  0  0  0  0  0  0
   -5.5185   -0.7829   -4.3996 O   0  0  0  0  0  0  0  0  0  0  0  0
   -4.0969   -2.4204   -4.6595 O   0  0  0  0  0  0  0  0  0  0  0  0
   -0.2880    2.4972   -5.3297 N   0  0  0  0  0  0  0  0  0  0  0  0
    0.7109    2.9055   -5.6700 N   0  0  0  0  0  0  0  0  0  0  0  0
    2.5498    0.5687   -6.0523 S   0  0  0  0  0  0  0  0  0  0  0  0
    3.8002    0.0578   -7.3311 C   0  0  0  0  0  0  0  0  0  0  0  0
    1.5670    1.3838   -6.8837 O   0  0  0  0  0  0  0  0  0  0  0  0
    3.2738    1.3670   -5.0561 O   0  0  0  0  0  0  0  0  0  0  0  0
    1.9312   -0.6948   -5.5892 O   0  0  0  0  0  0  0  0  0  0  0  0
    3.2073   -0.6424   -8.3044 F   0  0  0  0  0  0  0  0  0  0  0  0
    4.3787    1.1383   -7.8641 F   0  0  0  0  0  0  0  0  0  0  0  0
    4.7388   -0.7019   -6.7579 F   0  0  0  0  0  0  0  0  0  0  0  0
  1  6  2  0  0  0  0
  2  3  2  0  0  0  0
  2  1  1  0  0  0  0
  3  4  1  0  0  0  0
  4  9  1  0  0  0  0
  4  5  2  0  0  0  0
  5 10  1  0  0  0  0
  6  5  1  0  0  0  0
  6 11  1  0  0  0  0
  7  1  1  0  0  0  0
  8  2  1  0  0  0  0
 11 12  2  0  0  0  0
 13 11  2  0  0  0  0
 14  3  1  0  0  0  0
 15 14  1  0  0  0  0
 16 20  2  0  0  0  0
 16 19  1  0  0  0  0
 17 23  1  0  0  0  0
 17 16  1  0  0  0  0
 18 16  2  0  0  0  0
 21 17  1  0  0  0  0
 22 17  1  0  0  0  0
M  RAD  3  14   2  15   3  19   2
M  END
