Coordinates from ORCA-job p-NO2-Ph-N2-X-OTf-B3LYPG-6-31G_dp-scan-d09-49-n400
 OpenBabel08281820573D

 23 22  0  0  0  0  0  0  0  0999 V2000
   -2.2617   -0.7127   -5.5170 C   0  0  0  0  0  0  0  0  0  0  0  0
   -1.2846    0.1159   -6.0572 C   0  0  0  0  0  0  0  0  0  0  0  0
   -1.3054    1.4692   -5.6839 C   0  0  0  0  0  0  0  0  0  0  0  0
   -2.2501    2.0159   -4.8067 C   0  0  0  0  0  0  0  0  0  0  0  0
   -3.2129    1.1725   -4.2681 C   0  0  0  0  0  0  0  0  0  0  0  0
   -3.1986   -0.1715   -4.6384 C   0  0  0  0  0  0  0  0  0  0  0  0
   -2.2992   -1.7667   -5.7616 H   0  0  0  0  0  0  0  0  0  0  0  0
   -0.5237   -0.2567   -6.7336 H   0  0  0  0  0  0  0  0  0  0  0  0
   -2.2159    3.0692   -4.5535 H   0  0  0  0  0  0  0  0  0  0  0  0
   -3.9661    1.5308   -3.5782 H   0  0  0  0  0  0  0  0  0  0  0  0
   -4.2355   -1.0671   -4.0688 N   0  0  0  0  0  0  0  0  0  0  0  0
   -5.0385   -0.5653   -3.2880 O   0  0  0  0  0  0  0  0  0  0  0  0
   -4.2162   -2.2408   -4.4225 O   0  0  0  0  0  0  0  0  0  0  0  0
   -0.3462    2.3387   -6.2148 N   0  0  0  0  0  0  0  0  0  0  0  0
    0.6051    2.5834   -6.7832 N   0  0  0  0  0  0  0  0  0  0  0  0
    2.1673    0.0830   -6.2727 S   0  0  0  0  0  0  0  0  0  0  0  0
    3.9501    0.4666   -6.6244 C   0  0  0  0  0  0  0  0  0  0  0  0
    1.4477    0.7817   -7.4327 O   0  0  0  0  0  0  0  0  0  0  0  0
    1.8658    0.7350   -4.9854 O   0  0  0  0  0  0  0  0  0  0  0  0
    2.0332   -1.3740   -6.3639 O   0  0  0  0  0  0  0  0  0  0  0  0
    4.3094   -0.0391   -7.8071 F   0  0  0  0  0  0  0  0  0  0  0  0
    4.1320    1.7940   -6.6462 F   0  0  0  0  0  0  0  0  0  0  0  0
    4.7232   -0.0609   -5.6703 F   0  0  0  0  0  0  0  0  0  0  0  0
  1  6  2  0  0  0  0
  2  3  2  0  0  0  0
  2  1  1  0  0  0  0
  3  4  1  0  0  0  0
  4  9  1  0  0  0  0
  4  5  2  0  0  0  0
  5 10  1  0  0  0  0
  6  5  1  0  0  0  0
  6 11  1  0  0  0  0
  7  1  1  0  0  0  0
  8  2  1  0  0  0  0
 11 12  2  0  0  0  0
 13 11  2  0  0  0  0
 14  3  1  0  0  0  0
 15 14  2  0  0  0  0
 16 19  1  0  0  0  0
 17 16  1  0  0  0  0
 17 23  1  0  0  0  0
 18 16  2  0  0  0  0
 20 16  2  0  0  0  0
 21 17  1  0  0  0  0
 22 17  1  0  0  0  0
M  RAD  2  15   2  19   2
M  END
