Coordinates from ORCA-job p-NO2-Ph-N2-X-OTf-B3LYPG-6-31G_dp-scan-d09-49-n400
 OpenBabel08281820573D

 23 22  0  0  0  0  0  0  0  0999 V2000
   -2.3519   -0.7176   -5.5356 C   0  0  0  0  0  0  0  0  0  0  0  0
   -1.3343    0.0552   -6.0823 C   0  0  0  0  0  0  0  0  0  0  0  0
   -1.2602    1.4008   -5.6898 C   0  0  0  0  0  0  0  0  0  0  0  0
   -2.1496    1.9936   -4.7861 C   0  0  0  0  0  0  0  0  0  0  0  0
   -3.1530    1.2046   -4.2382 C   0  0  0  0  0  0  0  0  0  0  0  0
   -3.2334   -0.1313   -4.6284 C   0  0  0  0  0  0  0  0  0  0  0  0
   -2.4650   -1.7624   -5.7951 H   0  0  0  0  0  0  0  0  0  0  0  0
   -0.6106   -0.3443   -6.7837 H   0  0  0  0  0  0  0  0  0  0  0  0
   -2.0437    3.0388   -4.5199 H   0  0  0  0  0  0  0  0  0  0  0  0
   -3.8674    1.5999   -3.5275 H   0  0  0  0  0  0  0  0  0  0  0  0
   -4.3146   -0.9674   -4.0513 N   0  0  0  0  0  0  0  0  0  0  0  0
   -5.0706   -0.4274   -3.2495 O   0  0  0  0  0  0  0  0  0  0  0  0
   -4.3757   -2.1350   -4.4206 O   0  0  0  0  0  0  0  0  0  0  0  0
   -0.2611    2.2129   -6.2380 N   0  0  0  0  0  0  0  0  0  0  0  0
    0.6938    2.3835   -6.8291 N   0  0  0  0  0  0  0  0  0  0  0  0
    2.2318   -0.1044   -6.3189 S   0  0  0  0  0  0  0  0  0  0  0  0
    3.9043    0.6604   -6.5815 C   0  0  0  0  0  0  0  0  0  0  0  0
    1.4158    0.5254   -7.4579 O   0  0  0  0  0  0  0  0  0  0  0  0
    1.7782    0.3930   -5.0078 O   0  0  0  0  0  0  0  0  0  0  0  0
    2.4032   -1.5451   -6.5085 O   0  0  0  0  0  0  0  0  0  0  0  0
    4.3952    0.3138   -7.7736 F   0  0  0  0  0  0  0  0  0  0  0  0
    3.8012    1.9985   -6.5280 F   0  0  0  0  0  0  0  0  0  0  0  0
    4.7470    0.2558   -5.6267 F   0  0  0  0  0  0  0  0  0  0  0  0
  1  6  2  0  0  0  0
  2  3  2  0  0  0  0
  2  1  1  0  0  0  0
  3  4  1  0  0  0  0
  4  9  1  0  0  0  0
  4  5  2  0  0  0  0
  5 10  1  0  0  0  0
  6  5  1  0  0  0  0
  6 11  1  0  0  0  0
  7  1  1  0  0  0  0
  8  2  1  0  0  0  0
 11 12  2  0  0  0  0
 13 11  2  0  0  0  0
 14  3  1  0  0  0  0
 15 14  2  0  0  0  0
 16 19  1  0  0  0  0
 17 22  1  0  0  0  0
 17 16  1  0  0  0  0
 17 23  1  0  0  0  0
 18 16  2  0  0  0  0
 20 16  2  0  0  0  0
 21 17  1  0  0  0  0
M  RAD  2  15   2  19   2
M  END
