Coordinates from ORCA-job p-NO2-Ph-N2-X-OTf-B3LYPG-6-31G_dp-scan-d09-49-n400
 OpenBabel08281820583D

 23 22  0  0  0  0  0  0  0  0999 V2000
   -2.5775   -0.7776   -5.5412 C   0  0  0  0  0  0  0  0  0  0  0  0
   -1.6554   -0.2876   -6.4565 C   0  0  0  0  0  0  0  0  0  0  0  0
   -1.1318    0.9905   -6.2270 C   0  0  0  0  0  0  0  0  0  0  0  0
   -1.4637    1.7812   -5.1176 C   0  0  0  0  0  0  0  0  0  0  0  0
   -2.3723    1.2647   -4.2028 C   0  0  0  0  0  0  0  0  0  0  0  0
   -2.9166    0.0036   -4.4371 C   0  0  0  0  0  0  0  0  0  0  0  0
   -3.0219   -1.7572   -5.6602 H   0  0  0  0  0  0  0  0  0  0  0  0
   -1.3214   -0.8696   -7.3047 H   0  0  0  0  0  0  0  0  0  0  0  0
   -1.0102    2.7546   -4.9767 H   0  0  0  0  0  0  0  0  0  0  0  0
   -2.6653    1.8206   -3.3214 H   0  0  0  0  0  0  0  0  0  0  0  0
   -3.8970   -0.5321   -3.4650 N   0  0  0  0  0  0  0  0  0  0  0  0
   -4.1682    0.1732   -2.4979 O   0  0  0  0  0  0  0  0  0  0  0  0
   -4.3688   -1.6398   -3.6999 O   0  0  0  0  0  0  0  0  0  0  0  0
   -0.2559    1.5454   -7.1568 N   0  0  0  0  0  0  0  0  0  0  0  0
    0.3285    2.1676   -7.8816 N   0  0  0  0  0  0  0  0  0  0  0  0
    2.5038    0.0047   -7.1564 S   0  0  0  0  0  0  0  0  0  0  0  0
    2.8742    0.7393   -5.4902 C   0  0  0  0  0  0  0  0  0  0  0  0
    2.4903    1.2046   -8.0461 O   0  0  0  0  0  0  0  0  0  0  0  0
    1.1215   -0.5282   -6.9456 O   0  0  0  0  0  0  0  0  0  0  0  0
    3.5565   -0.9783   -7.3978 O   0  0  0  0  0  0  0  0  0  0  0  0
    4.0408    1.3852   -5.4853 F   0  0  0  0  0  0  0  0  0  0  0  0
    1.8981    1.6345   -5.1723 F   0  0  0  0  0  0  0  0  0  0  0  0
    2.8916   -0.1982   -4.5380 F   0  0  0  0  0  0  0  0  0  0  0  0
  1  6  2  0  0  0  0
  2  3  2  0  0  0  0
  2  1  1  0  0  0  0
  3  4  1  0  0  0  0
  4  9  1  0  0  0  0
  4  5  2  0  0  0  0
  5 10  1  0  0  0  0
  6  5  1  0  0  0  0
  6 11  1  0  0  0  0
  7  1  1  0  0  0  0
  8  2  1  0  0  0  0
 11 12  2  0  0  0  0
 13 11  2  0  0  0  0
 14  3  1  0  0  0  0
 15 14  1  0  0  0  0
 16 19  1  0  0  0  0
 16 17  1  0  0  0  0
 17 21  1  0  0  0  0
 17 22  1  0  0  0  0
 17 23  1  0  0  0  0
 18 16  2  0  0  0  0
 20 16  2  0  0  0  0
M  RAD  3  14   2  15   3  19   2
M  END
