Coordinates from ORCA-job p-NO2-Ph-N2-X-OTf-B3LYPG-6-31G_dp-scan-d09-49-n400
 OpenBabel08281820583D

 23 22  0  0  0  0  0  0  0  0999 V2000
   -2.6412   -0.6786   -5.7628 C   0  0  0  0  0  0  0  0  0  0  0  0
   -1.6457   -0.0011   -6.4539 C   0  0  0  0  0  0  0  0  0  0  0  0
   -1.2313    1.2388   -5.9465 C   0  0  0  0  0  0  0  0  0  0  0  0
   -1.7712    1.8280   -4.7985 C   0  0  0  0  0  0  0  0  0  0  0  0
   -2.7514    1.1273   -4.1073 C   0  0  0  0  0  0  0  0  0  0  0  0
   -3.1691   -0.1056   -4.6058 C   0  0  0  0  0  0  0  0  0  0  0  0
   -3.0036   -1.6420   -6.0968 H   0  0  0  0  0  0  0  0  0  0  0  0
   -1.1903   -0.4060   -7.3486 H   0  0  0  0  0  0  0  0  0  0  0  0
   -1.4155    2.7914   -4.4545 H   0  0  0  0  0  0  0  0  0  0  0  0
   -3.1975    1.5176   -3.2021 H   0  0  0  0  0  0  0  0  0  0  0  0
   -4.2298   -0.8377   -3.8756 N   0  0  0  0  0  0  0  0  0  0  0  0
   -4.6695   -0.3145   -2.8562 O   0  0  0  0  0  0  0  0  0  0  0  0
   -4.5943   -1.9102   -4.3463 O   0  0  0  0  0  0  0  0  0  0  0  0
   -0.2608    1.9417   -6.6588 N   0  0  0  0  0  0  0  0  0  0  0  0
    0.6338    2.1193   -7.3249 N   0  0  0  0  0  0  0  0  0  0  0  0
    2.2546   -0.2131   -6.3267 S   0  0  0  0  0  0  0  0  0  0  0  0
    3.7132    0.9337   -6.2305 C   0  0  0  0  0  0  0  0  0  0  0  0
    1.6003    0.2096   -7.6382 O   0  0  0  0  0  0  0  0  0  0  0  0
    1.4160    0.1711   -5.1702 O   0  0  0  0  0  0  0  0  0  0  0  0
    2.8213   -1.5610   -6.3666 O   0  0  0  0  0  0  0  0  0  0  0  0
    4.5282    0.7590   -7.2731 F   0  0  0  0  0  0  0  0  0  0  0  0
    3.2861    2.2136   -6.2320 F   0  0  0  0  0  0  0  0  0  0  0  0
    4.3969    0.7199   -5.1022 F   0  0  0  0  0  0  0  0  0  0  0  0
  1  6  2  0  0  0  0
  2  3  2  0  0  0  0
  2  1  1  0  0  0  0
  3  4  1  0  0  0  0
  4  9  1  0  0  0  0
  4  5  2  0  0  0  0
  5 10  1  0  0  0  0
  6  5  1  0  0  0  0
  6 11  1  0  0  0  0
  7  1  1  0  0  0  0
  8  2  1  0  0  0  0
 11 12  2  0  0  0  0
 13 11  2  0  0  0  0
 14  3  1  0  0  0  0
 15 14  1  0  0  0  0
 16 17  1  0  0  0  0
 16 19  1  0  0  0  0
 17 23  1  0  0  0  0
 18 16  2  0  0  0  0
 20 16  2  0  0  0  0
 21 17  1  0  0  0  0
 22 17  1  0  0  0  0
M  RAD  3  14   2  15   3  19   2
M  END
