Coordinates from ORCA-job p-NO2-Ph-N2-X-OTf-B3LYPG-6-31G_dp-scan-d09-49-n400
 OpenBabel08281820573D

 23 22  0  0  0  0  0  0  0  0999 V2000
   -1.9726   -0.7146   -5.0236 C   0  0  0  0  0  0  0  0  0  0  0  0
   -0.9415    0.2096   -5.1811 C   0  0  0  0  0  0  0  0  0  0  0  0
   -1.2989    1.5649   -5.1222 C   0  0  0  0  0  0  0  0  0  0  0  0
   -2.6042    2.0304   -4.9024 C   0  0  0  0  0  0  0  0  0  0  0  0
   -3.6137    1.0905   -4.7594 C   0  0  0  0  0  0  0  0  0  0  0  0
   -3.2740   -0.2621   -4.8224 C   0  0  0  0  0  0  0  0  0  0  0  0
   -1.7713   -1.7784   -5.0570 H   0  0  0  0  0  0  0  0  0  0  0  0
    0.0996   -0.1104   -5.3278 H   0  0  0  0  0  0  0  0  0  0  0  0
   -2.8106    3.0937   -4.8571 H   0  0  0  0  0  0  0  0  0  0  0  0
   -4.6440    1.3785   -4.5962 H   0  0  0  0  0  0  0  0  0  0  0  0
   -4.3578   -1.2633   -4.6595 N   0  0  0  0  0  0  0  0  0  0  0  0
   -5.4935   -0.8319   -4.4834 O   0  0  0  0  0  0  0  0  0  0  0  0
   -4.0400   -2.4457   -4.7127 O   0  0  0  0  0  0  0  0  0  0  0  0
   -0.2933    2.5274   -5.2716 N   0  0  0  0  0  0  0  0  0  0  0  0
    0.6973    2.9734   -5.5803 N   0  0  0  0  0  0  0  0  0  0  0  0
    2.5739    0.6337   -6.0294 S   0  0  0  0  0  0  0  0  0  0  0  0
    3.7171   -0.0075   -7.3496 C   0  0  0  0  0  0  0  0  0  0  0  0
    1.6098    1.4853   -6.8396 O   0  0  0  0  0  0  0  0  0  0  0  0
    3.4044    1.4003   -5.0949 O   0  0  0  0  0  0  0  0  0  0  0  0
    1.8959   -0.5733   -5.4939 O   0  0  0  0  0  0  0  0  0  0  0  0
    3.0264   -0.6969   -8.2651 F   0  0  0  0  0  0  0  0  0  0  0  0
    4.3402    1.0101   -7.9518 F   0  0  0  0  0  0  0  0  0  0  0  0
    4.6301   -0.8126   -6.7973 F   0  0  0  0  0  0  0  0  0  0  0  0
  1  6  2  0  0  0  0
  2  3  2  0  0  0  0
  2  1  1  0  0  0  0
  3  4  1  0  0  0  0
  4  9  1  0  0  0  0
  4  5  2  0  0  0  0
  5 10  1  0  0  0  0
  6  5  1  0  0  0  0
  6 11  1  0  0  0  0
  7  1  1  0  0  0  0
  8  2  1  0  0  0  0
 11 12  2  0  0  0  0
 13 11  2  0  0  0  0
 14  3  1  0  0  0  0
 15 14  1  0  0  0  0
 16 20  2  0  0  0  0
 16 19  1  0  0  0  0
 17 23  1  0  0  0  0
 17 16  1  0  0  0  0
 18 16  2  0  0  0  0
 21 17  1  0  0  0  0
 22 17  1  0  0  0  0
M  RAD  3  14   2  15   3  19   2
M  END
