Coordinates from ORCA-job p-NO2-Ph-N2-X-OTf-B3LYPG-6-31G_dp-scan-d09-49-n400
 OpenBabel08281820573D

 23 22  0  0  0  0  0  0  0  0999 V2000
   -1.7739   -0.6470   -5.0246 C   0  0  0  0  0  0  0  0  0  0  0  0
   -0.7890    0.3459   -5.0985 C   0  0  0  0  0  0  0  0  0  0  0  0
   -1.2762    1.6590   -5.0357 C   0  0  0  0  0  0  0  0  0  0  0  0
   -2.6245    2.0447   -4.9014 C   0  0  0  0  0  0  0  0  0  0  0  0
   -3.5622    1.0309   -4.8332 C   0  0  0  0  0  0  0  0  0  0  0  0
   -3.1124   -0.2942   -4.8957 C   0  0  0  0  0  0  0  0  0  0  0  0
   -1.5009   -1.6951   -5.0664 H   0  0  0  0  0  0  0  0  0  0  0  0
    0.3739    0.0991   -5.2048 H   0  0  0  0  0  0  0  0  0  0  0  0
   -2.9114    3.0896   -4.8595 H   0  0  0  0  0  0  0  0  0  0  0  0
   -4.6202    1.2348   -4.7319 H   0  0  0  0  0  0  0  0  0  0  0  0
   -4.1319   -1.3733   -4.8155 N   0  0  0  0  0  0  0  0  0  0  0  0
   -5.3042   -1.0256   -4.7030 O   0  0  0  0  0  0  0  0  0  0  0  0
   -3.7295   -2.5292   -4.8675 O   0  0  0  0  0  0  0  0  0  0  0  0
   -0.3240    2.6749   -5.1073 N   0  0  0  0  0  0  0  0  0  0  0  0
    0.5454    3.3637   -5.2263 N   0  0  0  0  0  0  0  0  0  0  0  0
    2.6546    0.7506   -5.9617 S   0  0  0  0  0  0  0  0  0  0  0  0
    3.2672   -0.2151   -7.4257 C   0  0  0  0  0  0  0  0  0  0  0  0
    1.9072    1.8845   -6.5792 O   0  0  0  0  0  0  0  0  0  0  0  0
    3.8379    1.0870   -5.1712 O   0  0  0  0  0  0  0  0  0  0  0  0
    1.7036   -0.2216   -5.3006 O   0  0  0  0  0  0  0  0  0  0  0  0
    2.2356   -0.5886   -8.1974 F   0  0  0  0  0  0  0  0  0  0  0  0
    4.0988    0.5364   -8.1545 F   0  0  0  0  0  0  0  0  0  0  0  0
    3.9154   -1.3102   -7.0165 F   0  0  0  0  0  0  0  0  0  0  0  0
  1  6  2  0  0  0  0
  2  3  2  0  0  0  0
  2  1  1  0  0  0  0
  3  4  1  0  0  0  0
  4  9  1  0  0  0  0
  4  5  2  0  0  0  0
  5 10  1  0  0  0  0
  6  5  1  0  0  0  0
  6 11  1  0  0  0  0
  7  1  1  0  0  0  0
  8  2  1  0  0  0  0
 11 12  2  0  0  0  0
 13 11  2  0  0  0  0
 14  3  1  0  0  0  0
 15 14  1  0  0  0  0
 16 20  2  0  0  0  0
 16 19  1  0  0  0  0
 17 23  1  0  0  0  0
 17 16  1  0  0  0  0
 18 16  2  0  0  0  0
 21 17  1  0  0  0  0
 22 17  1  0  0  0  0
M  RAD  3  14   2  15   3  19   2
M  END
