Coordinates from ORCA-job p-NO2-Ph-N2-X-OTf-B3LYPG-6-31G_dp-scan-d09-49-n400
 OpenBabel08281820573D

 23 22  0  0  0  0  0  0  0  0999 V2000
   -2.3227   -0.7167   -5.5259 C   0  0  0  0  0  0  0  0  0  0  0  0
   -1.3158    0.0717   -6.0703 C   0  0  0  0  0  0  0  0  0  0  0  0
   -1.2709    1.4214   -5.6867 C   0  0  0  0  0  0  0  0  0  0  0  0
   -2.1793    2.0028   -4.7943 C   0  0  0  0  0  0  0  0  0  0  0  0
   -3.1723    1.1986   -4.2495 C   0  0  0  0  0  0  0  0  0  0  0  0
   -3.2231   -0.1414   -4.6305 C   0  0  0  0  0  0  0  0  0  0  0  0
   -2.4128   -1.7654   -5.7787 H   0  0  0  0  0  0  0  0  0  0  0  0
   -0.5799   -0.3210   -6.7629 H   0  0  0  0  0  0  0  0  0  0  0  0
   -2.0954    3.0515   -4.5343 H   0  0  0  0  0  0  0  0  0  0  0  0
   -3.9002    1.5850   -3.5477 H   0  0  0  0  0  0  0  0  0  0  0  0
   -4.2922   -0.9944   -4.0554 N   0  0  0  0  0  0  0  0  0  0  0  0
   -5.0649   -0.4634   -3.2636 O   0  0  0  0  0  0  0  0  0  0  0  0
   -4.3273   -2.1657   -4.4160 O   0  0  0  0  0  0  0  0  0  0  0  0
   -0.2814    2.2502   -6.2274 N   0  0  0  0  0  0  0  0  0  0  0  0
    0.6746    2.4381   -6.8117 N   0  0  0  0  0  0  0  0  0  0  0  0
    2.2086   -0.0608   -6.3111 S   0  0  0  0  0  0  0  0  0  0  0  0
    3.9177    0.6094   -6.5935 C   0  0  0  0  0  0  0  0  0  0  0  0
    1.4183    0.5968   -7.4519 O   0  0  0  0  0  0  0  0  0  0  0  0
    1.7913    0.4723   -5.0019 O   0  0  0  0  0  0  0  0  0  0  0  0
    2.2969   -1.5113   -6.4860 O   0  0  0  0  0  0  0  0  0  0  0  0
    4.3794    0.2251   -7.7858 F   0  0  0  0  0  0  0  0  0  0  0  0
    3.8868    1.9506   -6.5520 F   0  0  0  0  0  0  0  0  0  0  0  0
    4.7442    0.1676   -5.6409 F   0  0  0  0  0  0  0  0  0  0  0  0
  1  6  2  0  0  0  0
  2  3  2  0  0  0  0
  2  1  1  0  0  0  0
  3  4  1  0  0  0  0
  4  9  1  0  0  0  0
  4  5  2  0  0  0  0
  5 10  1  0  0  0  0
  6  5  1  0  0  0  0
  6 11  1  0  0  0  0
  7  1  1  0  0  0  0
  8  2  1  0  0  0  0
 11 12  2  0  0  0  0
 13 11  2  0  0  0  0
 14  3  1  0  0  0  0
 15 14  2  0  0  0  0
 16 19  1  0  0  0  0
 17 22  1  0  0  0  0
 17 16  1  0  0  0  0
 17 23  1  0  0  0  0
 18 16  2  0  0  0  0
 20 16  2  0  0  0  0
 21 17  1  0  0  0  0
M  RAD  2  15   2  19   2
M  END
