Coordinates from ORCA-job p-NO2-Ph-N2-X-OTf-B3LYPG-6-31G_dp-scan-d09-49-n400
 OpenBabel08281820573D

 23 22  0  0  0  0  0  0  0  0999 V2000
   -2.3828   -0.7172   -5.5522 C   0  0  0  0  0  0  0  0  0  0  0  0
   -1.3582    0.0411   -6.1057 C   0  0  0  0  0  0  0  0  0  0  0  0
   -1.2520    1.3807   -5.7012 C   0  0  0  0  0  0  0  0  0  0  0  0
   -2.1163    1.9823   -4.7793 C   0  0  0  0  0  0  0  0  0  0  0  0
   -3.1263    1.2070   -4.2238 C   0  0  0  0  0  0  0  0  0  0  0  0
   -3.2391   -0.1229   -4.6261 C   0  0  0  0  0  0  0  0  0  0  0  0
   -2.5208   -1.7568   -5.8203 H   0  0  0  0  0  0  0  0  0  0  0  0
   -0.6517   -0.3639   -6.8210 H   0  0  0  0  0  0  0  0  0  0  0  0
   -1.9865    3.0226   -4.5050 H   0  0  0  0  0  0  0  0  0  0  0  0
   -3.8222    1.6090   -3.4987 H   0  0  0  0  0  0  0  0  0  0  0  0
   -4.3285   -0.9433   -4.0420 N   0  0  0  0  0  0  0  0  0  0  0  0
   -5.0612   -0.3973   -3.2230 O   0  0  0  0  0  0  0  0  0  0  0  0
   -4.4189   -2.1052   -4.4235 O   0  0  0  0  0  0  0  0  0  0  0  0
   -0.2473    2.1769   -6.2615 N   0  0  0  0  0  0  0  0  0  0  0  0
    0.7043    2.3348   -6.8608 N   0  0  0  0  0  0  0  0  0  0  0  0
    2.2508   -0.1396   -6.3238 S   0  0  0  0  0  0  0  0  0  0  0  0
    3.8882    0.7058   -6.5608 C   0  0  0  0  0  0  0  0  0  0  0  0
    1.4200    0.4611   -7.4682 O   0  0  0  0  0  0  0  0  0  0  0  0
    1.7589    0.3288   -5.0156 O   0  0  0  0  0  0  0  0  0  0  0  0
    2.4986   -1.5682   -6.5188 O   0  0  0  0  0  0  0  0  0  0  0  0
    4.4091    0.3935   -7.7495 F   0  0  0  0  0  0  0  0  0  0  0  0
    3.7226    2.0380   -6.4981 F   0  0  0  0  0  0  0  0  0  0  0  0
    4.7384    0.3341   -5.5993 F   0  0  0  0  0  0  0  0  0  0  0  0
  1  6  2  0  0  0  0
  2  3  2  0  0  0  0
  2  1  1  0  0  0  0
  3  4  1  0  0  0  0
  4  9  1  0  0  0  0
  4  5  2  0  0  0  0
  5 10  1  0  0  0  0
  6  5  1  0  0  0  0
  6 11  1  0  0  0  0
  7  1  1  0  0  0  0
  8  2  1  0  0  0  0
 11 12  2  0  0  0  0
 13 11  2  0  0  0  0
 14  3  1  0  0  0  0
 15 14  2  0  0  0  0
 16 19  1  0  0  0  0
 17 22  1  0  0  0  0
 17 16  1  0  0  0  0
 17 23  1  0  0  0  0
 18 16  2  0  0  0  0
 20 16  2  0  0  0  0
 21 17  1  0  0  0  0
M  RAD  2  15   2  19   2
M  END
