Coordinates from ORCA-job p-NO2-Ph-N2-X-OTf-B3LYPG-6-31G_dp-scan-d09-49-n400
 OpenBabel08281820573D

 23 22  0  0  0  0  0  0  0  0999 V2000
   -2.0713   -0.7343   -5.0893 C   0  0  0  0  0  0  0  0  0  0  0  0
   -1.0253    0.1515   -5.3351 C   0  0  0  0  0  0  0  0  0  0  0  0
   -1.3125    1.5214   -5.2282 C   0  0  0  0  0  0  0  0  0  0  0  0
   -2.5726    2.0297   -4.8812 C   0  0  0  0  0  0  0  0  0  0  0  0
   -3.6037    1.1298   -4.6522 C   0  0  0  0  0  0  0  0  0  0  0  0
   -3.3289   -0.2335   -4.7610 C   0  0  0  0  0  0  0  0  0  0  0  0
   -1.9168   -1.8046   -5.1515 H   0  0  0  0  0  0  0  0  0  0  0  0
   -0.0283   -0.2097   -5.5836 H   0  0  0  0  0  0  0  0  0  0  0  0
   -2.7293    3.0997   -4.8032 H   0  0  0  0  0  0  0  0  0  0  0  0
   -4.6006    1.4576   -4.3884 H   0  0  0  0  0  0  0  0  0  0  0  0
   -4.4320   -1.1933   -4.5082 N   0  0  0  0  0  0  0  0  0  0  0  0
   -5.5274   -0.7205   -4.2195 O   0  0  0  0  0  0  0  0  0  0  0  0
   -4.1693   -2.3864   -4.6070 O   0  0  0  0  0  0  0  0  0  0  0  0
   -0.2937    2.4563   -5.4554 N   0  0  0  0  0  0  0  0  0  0  0  0
    0.7092    2.8243   -5.8343 N   0  0  0  0  0  0  0  0  0  0  0  0
    2.5210    0.4855   -6.0778 S   0  0  0  0  0  0  0  0  0  0  0  0
    3.9084    0.1404   -7.2671 C   0  0  0  0  0  0  0  0  0  0  0  0
    1.5301    1.2446   -6.9570 O   0  0  0  0  0  0  0  0  0  0  0  0
    3.0876    1.3178   -5.0079 O   0  0  0  0  0  0  0  0  0  0  0  0
    1.9852   -0.8392   -5.7027 O   0  0  0  0  0  0  0  0  0  0  0  0
    3.4607   -0.5762   -8.3035 F   0  0  0  0  0  0  0  0  0  0  0  0
    4.4195    1.2890   -7.7211 F   0  0  0  0  0  0  0  0  0  0  0  0
    4.8690   -0.5487   -6.6430 F   0  0  0  0  0  0  0  0  0  0  0  0
  1  6  2  0  0  0  0
  2  3  2  0  0  0  0
  2  1  1  0  0  0  0
  3  4  1  0  0  0  0
  4  9  1  0  0  0  0
  4  5  2  0  0  0  0
  5 10  1  0  0  0  0
  6  5  1  0  0  0  0
  6 11  1  0  0  0  0
  7  1  1  0  0  0  0
  8  2  1  0  0  0  0
 11 12  2  0  0  0  0
 13 11  2  0  0  0  0
 14  3  1  0  0  0  0
 15 14  1  0  0  0  0
 16 20  2  0  0  0  0
 16 19  1  0  0  0  0
 17 23  1  0  0  0  0
 17 16  1  0  0  0  0
 18 16  2  0  0  0  0
 21 17  1  0  0  0  0
 22 17  1  0  0  0  0
M  RAD  3  14   2  15   3  19   2
M  END
