Coordinates from ORCA-job p-NO2-Ph-N2-X-OTf-B3LYPG-6-31G_dp-scan-d09-49-n400
 OpenBabel08281820583D

 23 22  0  0  0  0  0  0  0  0999 V2000
   -2.6975   -0.6711   -5.7888 C   0  0  0  0  0  0  0  0  0  0  0  0
   -1.7074   -0.0117   -6.5046 C   0  0  0  0  0  0  0  0  0  0  0  0
   -1.2326    1.2027   -5.9887 C   0  0  0  0  0  0  0  0  0  0  0  0
   -1.7071    1.7843   -4.8080 C   0  0  0  0  0  0  0  0  0  0  0  0
   -2.6839    1.1017   -4.0950 C   0  0  0  0  0  0  0  0  0  0  0  0
   -3.1621   -0.1059   -4.6015 C   0  0  0  0  0  0  0  0  0  0  0  0
   -3.1037   -1.6154   -6.1274 H   0  0  0  0  0  0  0  0  0  0  0  0
   -1.3010   -0.4144   -7.4235 H   0  0  0  0  0  0  0  0  0  0  0  0
   -1.3037    2.7259   -4.4564 H   0  0  0  0  0  0  0  0  0  0  0  0
   -3.0812    1.4867   -3.1653 H   0  0  0  0  0  0  0  0  0  0  0  0
   -4.2182   -0.8180   -3.8462 N   0  0  0  0  0  0  0  0  0  0  0  0
   -4.6056   -0.2993   -2.8035 O   0  0  0  0  0  0  0  0  0  0  0  0
   -4.6320   -1.8709   -4.3209 O   0  0  0  0  0  0  0  0  0  0  0  0
   -0.2684    1.8851   -6.7248 N   0  0  0  0  0  0  0  0  0  0  0  0
    0.6094    2.1007   -7.3979 N   0  0  0  0  0  0  0  0  0  0  0  0
    2.2628   -0.2034   -6.3367 S   0  0  0  0  0  0  0  0  0  0  0  0
    3.6942    0.9687   -6.1727 C   0  0  0  0  0  0  0  0  0  0  0  0
    1.6690    0.2025   -7.6765 O   0  0  0  0  0  0  0  0  0  0  0  0
    1.3641    0.1748   -5.2214 O   0  0  0  0  0  0  0  0  0  0  0  0
    2.8512   -1.5426   -6.3324 O   0  0  0  0  0  0  0  0  0  0  0  0
    4.5624    0.8071   -7.1740 F   0  0  0  0  0  0  0  0  0  0  0  0
    3.2431    2.2407   -6.2003 F   0  0  0  0  0  0  0  0  0  0  0  0
    4.3276    0.7730   -5.0119 F   0  0  0  0  0  0  0  0  0  0  0  0
  1  6  2  0  0  0  0
  2  3  2  0  0  0  0
  2  1  1  0  0  0  0
  3  4  1  0  0  0  0
  4  9  1  0  0  0  0
  4  5  2  0  0  0  0
  5 10  1  0  0  0  0
  6  5  1  0  0  0  0
  6 11  1  0  0  0  0
  7  1  1  0  0  0  0
  8  2  1  0  0  0  0
 11 12  2  0  0  0  0
 13 11  2  0  0  0  0
 14  3  1  0  0  0  0
 15 14  1  0  0  0  0
 16 20  2  0  0  0  0
 16 17  1  0  0  0  0
 16 19  1  0  0  0  0
 17 23  1  0  0  0  0
 18 16  2  0  0  0  0
 21 17  1  0  0  0  0
 22 17  1  0  0  0  0
M  RAD  3  14   2  15   3  19   2
M  END
