Coordinates from ORCA-job p-NO2-Ph-N2-X-OTf-B3LYPG-6-31G_dp-scan-d09-49-n400
 OpenBabel08281820573D

 23 22  0  0  0  0  0  0  0  0999 V2000
   -1.6473   -0.5835   -4.9771 C   0  0  0  0  0  0  0  0  0  0  0  0
   -0.6739    0.4401   -4.9821 C   0  0  0  0  0  0  0  0  0  0  0  0
   -1.2521    1.7174   -4.9780 C   0  0  0  0  0  0  0  0  0  0  0  0
   -2.6252    2.0634   -4.9684 C   0  0  0  0  0  0  0  0  0  0  0  0
   -3.5205    1.0154   -4.9641 C   0  0  0  0  0  0  0  0  0  0  0  0
   -3.0044   -0.2914   -4.9671 C   0  0  0  0  0  0  0  0  0  0  0  0
   -1.3442   -1.6252   -4.9818 H   0  0  0  0  0  0  0  0  0  0  0  0
    0.7620    0.1346   -5.0328 H   0  0  0  0  0  0  0  0  0  0  0  0
   -2.9561    3.0968   -4.9676 H   0  0  0  0  0  0  0  0  0  0  0  0
   -4.5912    1.1721   -4.9585 H   0  0  0  0  0  0  0  0  0  0  0  0
   -3.9831   -1.4114   -4.9592 N   0  0  0  0  0  0  0  0  0  0  0  0
   -5.1753   -1.1132   -4.9556 O   0  0  0  0  0  0  0  0  0  0  0  0
   -3.5352   -2.5521   -4.9568 O   0  0  0  0  0  0  0  0  0  0  0  0
   -0.3579    2.7889   -4.9731 N   0  0  0  0  0  0  0  0  0  0  0  0
    0.3864    3.6163   -4.9716 N   0  0  0  0  0  0  0  0  0  0  0  0
    2.7366    0.7371   -5.9166 S   0  0  0  0  0  0  0  0  0  0  0  0
    2.9129   -0.2995   -7.4487 C   0  0  0  0  0  0  0  0  0  0  0  0
    2.0040    1.9405   -6.3467 O   0  0  0  0  0  0  0  0  0  0  0  0
    4.0690    0.8667   -5.3457 O   0  0  0  0  0  0  0  0  0  0  0  0
    1.8201   -0.1676   -5.0504 O   0  0  0  0  0  0  0  0  0  0  0  0
    1.7011   -0.5592   -7.9590 F   0  0  0  0  0  0  0  0  0  0  0  0
    3.6329    0.3663   -8.3550 F   0  0  0  0  0  0  0  0  0  0  0  0
    3.5206   -1.4514   -7.1623 F   0  0  0  0  0  0  0  0  0  0  0  0
  1  6  2  0  0  0  0
  2  3  2  0  0  0  0
  2  1  1  0  0  0  0
  3 14  1  0  0  0  0
  3  4  1  0  0  0  0
  4  9  1  0  0  0  0
  4  5  2  0  0  0  0
  5 10  1  0  0  0  0
  6  5  1  0  0  0  0
  6 11  1  0  0  0  0
  7  1  1  0  0  0  0
 11 13  2  0  0  0  0
 11 12  2  0  0  0  0
 14 15  1  0  0  0  0
 16 19  2  0  0  0  0
 16 20  1  0  0  0  0
 17 23  1  0  0  0  0
 17 16  1  0  0  0  0
 18 16  2  0  0  0  0
 20  8  1  0  0  0  0
 21 17  1  0  0  0  0
 22 17  1  0  0  0  0
M  RAD  3   2   2  14   2  15   3
M  END
