Coordinates from ORCA-job p-NO2-Ph-N2-X-OTf-B3LYPG-6-31G_dp-scan-d09-49-n400
 OpenBabel08281820573D

 23 22  0  0  0  0  0  0  0  0999 V2000
   -1.8392   -0.6741   -5.0312 C   0  0  0  0  0  0  0  0  0  0  0  0
   -0.8431    0.3009   -5.1273 C   0  0  0  0  0  0  0  0  0  0  0  0
   -1.2893    1.6282   -5.0594 C   0  0  0  0  0  0  0  0  0  0  0  0
   -2.6251    2.0356   -4.8952 C   0  0  0  0  0  0  0  0  0  0  0  0
   -3.5849    1.0418   -4.8076 C   0  0  0  0  0  0  0  0  0  0  0  0
   -3.1679   -0.2918   -4.8770 C   0  0  0  0  0  0  0  0  0  0  0  0
   -1.5861   -1.7268   -5.0750 H   0  0  0  0  0  0  0  0  0  0  0  0
    0.2670    0.0474   -5.2412 H   0  0  0  0  0  0  0  0  0  0  0  0
   -2.8887    3.0862   -4.8472 H   0  0  0  0  0  0  0  0  0  0  0  0
   -4.6355    1.2700   -4.6849 H   0  0  0  0  0  0  0  0  0  0  0  0
   -4.2069   -1.3492   -4.7744 N   0  0  0  0  0  0  0  0  0  0  0  0
   -5.3689   -0.9773   -4.6373 O   0  0  0  0  0  0  0  0  0  0  0  0
   -3.8289   -2.5131   -4.8339 O   0  0  0  0  0  0  0  0  0  0  0  0
   -0.3165    2.6244   -5.1546 N   0  0  0  0  0  0  0  0  0  0  0  0
    0.6067    3.2313   -5.3377 N   0  0  0  0  0  0  0  0  0  0  0  0
    2.6456    0.7550   -5.9778 S   0  0  0  0  0  0  0  0  0  0  0  0
    3.4075   -0.1690   -7.3995 C   0  0  0  0  0  0  0  0  0  0  0  0
    1.8493    1.8232   -6.6715 O   0  0  0  0  0  0  0  0  0  0  0  0
    3.7578    1.2181   -5.1470 O   0  0  0  0  0  0  0  0  0  0  0  0
    1.7425   -0.2636   -5.3454 O   0  0  0  0  0  0  0  0  0  0  0  0
    2.4504   -0.6459   -8.2080 F   0  0  0  0  0  0  0  0  0  0  0  0
    4.2008    0.6440   -8.1042 F   0  0  0  0  0  0  0  0  0  0  0  0
    4.1326   -1.1941   -6.9405 F   0  0  0  0  0  0  0  0  0  0  0  0
  1  6  2  0  0  0  0
  2  3  2  0  0  0  0
  2  1  1  0  0  0  0
  3  4  1  0  0  0  0
  4  9  1  0  0  0  0
  4  5  2  0  0  0  0
  5 10  1  0  0  0  0
  6  5  1  0  0  0  0
  6 11  1  0  0  0  0
  7  1  1  0  0  0  0
  8  2  1  0  0  0  0
 11 12  2  0  0  0  0
 13 11  2  0  0  0  0
 14  3  1  0  0  0  0
 15 14  1  0  0  0  0
 16 20  2  0  0  0  0
 16 19  1  0  0  0  0
 17 23  1  0  0  0  0
 17 16  1  0  0  0  0
 18 16  2  0  0  0  0
 21 17  1  0  0  0  0
 22 17  1  0  0  0  0
M  RAD  3  14   2  15   3  19   2
M  END
