Coordinates from ORCA-job p-NO2-Ph-N2-X-OTf-B3LYPG-6-31G_dp-scan-d09-49-n400
 OpenBabel08281820573D

 23 22  0  0  0  0  0  0  0  0999 V2000
   -1.7531   -0.6382   -5.0170 C   0  0  0  0  0  0  0  0  0  0  0  0
   -0.7714    0.3600   -5.0825 C   0  0  0  0  0  0  0  0  0  0  0  0
   -1.2709    1.6687   -5.0278 C   0  0  0  0  0  0  0  0  0  0  0  0
   -2.6237    2.0475   -4.9102 C   0  0  0  0  0  0  0  0  0  0  0  0
   -3.5550    1.0282   -4.8495 C   0  0  0  0  0  0  0  0  0  0  0  0
   -3.0950   -0.2943   -4.9035 C   0  0  0  0  0  0  0  0  0  0  0  0
   -1.4738   -1.6849   -5.0539 H   0  0  0  0  0  0  0  0  0  0  0  0
    0.4077    0.1109   -5.1834 H   0  0  0  0  0  0  0  0  0  0  0  0
   -2.9177    3.0908   -4.8745 H   0  0  0  0  0  0  0  0  0  0  0  0
   -4.6154    1.2251   -4.7609 H   0  0  0  0  0  0  0  0  0  0  0  0
   -4.1085   -1.3798   -4.8318 N   0  0  0  0  0  0  0  0  0  0  0  0
   -5.2844   -1.0393   -4.7355 O   0  0  0  0  0  0  0  0  0  0  0  0
   -3.6983   -2.5334   -4.8743 O   0  0  0  0  0  0  0  0  0  0  0  0
   -0.3266    2.6923   -5.0892 N   0  0  0  0  0  0  0  0  0  0  0  0
    0.5232    3.4067   -5.1882 N   0  0  0  0  0  0  0  0  0  0  0  0
    2.6592    0.7452   -5.9538 S   0  0  0  0  0  0  0  0  0  0  0  0
    3.2219   -0.2275   -7.4327 C   0  0  0  0  0  0  0  0  0  0  0  0
    1.9169    1.8924   -6.5460 O   0  0  0  0  0  0  0  0  0  0  0  0
    3.8642    1.0514   -5.1851 O   0  0  0  0  0  0  0  0  0  0  0  0
    1.7048   -0.2172   -5.2759 O   0  0  0  0  0  0  0  0  0  0  0  0
    2.1662   -0.5797   -8.1821 F   0  0  0  0  0  0  0  0  0  0  0  0
    4.0499    0.5117   -8.1781 F   0  0  0  0  0  0  0  0  0  0  0  0
    3.8594   -1.3355   -7.0423 F   0  0  0  0  0  0  0  0  0  0  0  0
  1  6  2  0  0  0  0
  2  3  2  0  0  0  0
  2  1  1  0  0  0  0
  3  4  1  0  0  0  0
  4  9  1  0  0  0  0
  4  5  2  0  0  0  0
  5 10  1  0  0  0  0
  6  5  1  0  0  0  0
  6 11  1  0  0  0  0
  7  1  1  0  0  0  0
  8  2  1  0  0  0  0
 11 12  2  0  0  0  0
 13 11  2  0  0  0  0
 14  3  1  0  0  0  0
 15 14  1  0  0  0  0
 16 20  2  0  0  0  0
 16 19  1  0  0  0  0
 17 23  1  0  0  0  0
 17 16  1  0  0  0  0
 18 16  2  0  0  0  0
 21 17  1  0  0  0  0
 22 17  1  0  0  0  0
M  RAD  3  14   2  15   3  19   2
M  END
