Coordinates from ORCA-job p-NO2-Ph-N2-X-OTf-B3LYPG-6-31G_dp-scan-d09-49-n400
 OpenBabel08281820573D

 23 22  0  0  0  0  0  0  0  0999 V2000
   -1.6299   -0.5631   -4.9479 C   0  0  0  0  0  0  0  0  0  0  0  0
   -0.6582    0.4720   -4.9193 C   0  0  0  0  0  0  0  0  0  0  0  0
   -1.2753    1.7314   -4.9546 C   0  0  0  0  0  0  0  0  0  0  0  0
   -2.6530    2.0650   -5.0112 C   0  0  0  0  0  0  0  0  0  0  0  0
   -3.5304    1.0046   -5.0377 C   0  0  0  0  0  0  0  0  0  0  0  0
   -2.9900   -0.2946   -5.0043 C   0  0  0  0  0  0  0  0  0  0  0  0
   -1.3207   -1.6034   -4.9274 H   0  0  0  0  0  0  0  0  0  0  0  0
    1.0721    0.1264   -4.9092 H   0  0  0  0  0  0  0  0  0  0  0  0
   -2.9984    3.0938   -5.0349 H   0  0  0  0  0  0  0  0  0  0  0  0
   -4.6027    1.1421   -5.0834 H   0  0  0  0  0  0  0  0  0  0  0  0
   -3.9510   -1.4294   -5.0332 N   0  0  0  0  0  0  0  0  0  0  0  0
   -5.1478   -1.1515   -5.0838 O   0  0  0  0  0  0  0  0  0  0  0  0
   -3.4888   -2.5646   -5.0047 O   0  0  0  0  0  0  0  0  0  0  0  0
   -0.3954    2.8164   -4.9248 N   0  0  0  0  0  0  0  0  0  0  0  0
    0.3402    3.6524   -4.8985 N   0  0  0  0  0  0  0  0  0  0  0  0
    2.8425    0.7593   -5.9180 S   0  0  0  0  0  0  0  0  0  0  0  0
    2.7492   -0.3162   -7.4341 C   0  0  0  0  0  0  0  0  0  0  0  0
    2.1260    1.9918   -6.2548 O   0  0  0  0  0  0  0  0  0  0  0  0
    4.2290    0.7801   -5.4917 O   0  0  0  0  0  0  0  0  0  0  0  0
    1.9933   -0.1061   -4.9031 O   0  0  0  0  0  0  0  0  0  0  0  0
    1.4667   -0.5186   -7.7558 F   0  0  0  0  0  0  0  0  0  0  0  0
    3.3649    0.3009   -8.4433 F   0  0  0  0  0  0  0  0  0  0  0  0
    3.3370   -1.4878   -7.2025 F   0  0  0  0  0  0  0  0  0  0  0  0
  1  7  1  0  0  0  0
  1  2  1  0  0  0  0
  3 14  1  0  0  0  0
  3  2  2  0  0  0  0
  4  3  1  0  0  0  0
  5  4  2  0  0  0  0
  5  6  1  0  0  0  0
  6  1  2  0  0  0  0
  8 20  1  0  0  0  0
  9  4  1  0  0  0  0
 10  5  1  0  0  0  0
 11 13  2  0  0  0  0
 11  6  1  0  0  0  0
 12 11  2  0  0  0  0
 14 15  1  0  0  0  0
 16 19  2  0  0  0  0
 16 20  1  0  0  0  0
 17 23  1  0  0  0  0
 17 16  1  0  0  0  0
 18 16  2  0  0  0  0
 21 17  1  0  0  0  0
 22 17  1  0  0  0  0
M  RAD  3   2   2  14   2  15   3
M  END
