Coordinates from ORCA-job p-NO2-Ph-N2-X-OTf-B3LYPG-6-31G_dp-scan-d09-49-n400
 OpenBabel08281820573D

 23 22  0  0  0  0  0  0  0  0999 V2000
   -2.3128   -0.7160   -5.5248 C   0  0  0  0  0  0  0  0  0  0  0  0
   -1.3110    0.0792   -6.0689 C   0  0  0  0  0  0  0  0  0  0  0  0
   -1.2767    1.4297   -5.6870 C   0  0  0  0  0  0  0  0  0  0  0  0
   -2.1909    2.0054   -4.7967 C   0  0  0  0  0  0  0  0  0  0  0  0
   -3.1787    1.1946   -4.2525 C   0  0  0  0  0  0  0  0  0  0  0  0
   -3.2190   -0.1462   -4.6316 C   0  0  0  0  0  0  0  0  0  0  0  0
   -2.3944   -1.7658   -5.7763 H   0  0  0  0  0  0  0  0  0  0  0  0
   -0.5713   -0.3101   -6.7595 H   0  0  0  0  0  0  0  0  0  0  0  0
   -2.1150    3.0550   -4.5378 H   0  0  0  0  0  0  0  0  0  0  0  0
   -3.9106    1.5765   -3.5523 H   0  0  0  0  0  0  0  0  0  0  0  0
   -4.2825   -1.0064   -4.0569 N   0  0  0  0  0  0  0  0  0  0  0  0
   -5.0601   -0.4800   -3.2668 O   0  0  0  0  0  0  0  0  0  0  0  0
   -4.3085   -2.1784   -4.4161 O   0  0  0  0  0  0  0  0  0  0  0  0
   -0.2921    2.2655   -6.2259 N   0  0  0  0  0  0  0  0  0  0  0  0
    0.6638    2.4614   -6.8076 N   0  0  0  0  0  0  0  0  0  0  0  0
    2.2003   -0.0391   -6.3045 S   0  0  0  0  0  0  0  0  0  0  0  0
    3.9241    0.5867   -6.5982 C   0  0  0  0  0  0  0  0  0  0  0  0
    1.4215    0.6266   -7.4484 O   0  0  0  0  0  0  0  0  0  0  0  0
    1.8000    0.5139   -4.9982 O   0  0  0  0  0  0  0  0  0  0  0  0
    2.2524   -1.4930   -6.4672 O   0  0  0  0  0  0  0  0  0  0  0  0
    4.3711    0.1830   -7.7897 F   0  0  0  0  0  0  0  0  0  0  0  0
    3.9267    1.9282   -6.5655 F   0  0  0  0  0  0  0  0  0  0  0  0
    4.7430    0.1303   -5.6458 F   0  0  0  0  0  0  0  0  0  0  0  0
  1  6  2  0  0  0  0
  2  3  2  0  0  0  0
  2  1  1  0  0  0  0
  3  4  1  0  0  0  0
  4  9  1  0  0  0  0
  4  5  2  0  0  0  0
  5 10  1  0  0  0  0
  6  5  1  0  0  0  0
  6 11  1  0  0  0  0
  7  1  1  0  0  0  0
  8  2  1  0  0  0  0
 11 12  2  0  0  0  0
 13 11  2  0  0  0  0
 14  3  1  0  0  0  0
 15 14  2  0  0  0  0
 16 19  1  0  0  0  0
 17 22  1  0  0  0  0
 17 16  1  0  0  0  0
 17 23  1  0  0  0  0
 18 16  2  0  0  0  0
 20 16  2  0  0  0  0
 21 17  1  0  0  0  0
M  RAD  2  15   2  19   2
M  END
