Coordinates from ORCA-job p-NO2-Ph-N2-X-OTf-B3LYPG-6-31G_dp-scan-d09-49-n400
 OpenBabel08281820583D

 23 22  0  0  0  0  0  0  0  0999 V2000
   -2.5157   -0.8195   -5.4030 C   0  0  0  0  0  0  0  0  0  0  0  0
   -1.5241   -0.3233   -6.2417 C   0  0  0  0  0  0  0  0  0  0  0  0
   -1.1426    1.0122   -6.0727 C   0  0  0  0  0  0  0  0  0  0  0  0
   -1.6903    1.8604   -5.0971 C   0  0  0  0  0  0  0  0  0  0  0  0
   -2.6626    1.3400   -4.2538 C   0  0  0  0  0  0  0  0  0  0  0  0
   -3.0600    0.0153   -4.4293 C   0  0  0  0  0  0  0  0  0  0  0  0
   -2.8594   -1.8428   -5.4840 H   0  0  0  0  0  0  0  0  0  0  0  0
   -1.0318   -0.9356   -6.9844 H   0  0  0  0  0  0  0  0  0  0  0  0
   -1.3525    2.8858   -5.0029 H   0  0  0  0  0  0  0  0  0  0  0  0
   -3.1182    1.9387   -3.4755 H   0  0  0  0  0  0  0  0  0  0  0  0
   -4.1103   -0.5275   -3.5354 N   0  0  0  0  0  0  0  0  0  0  0  0
   -4.5591    0.2282   -2.6788 O   0  0  0  0  0  0  0  0  0  0  0  0
   -4.4505   -1.6918   -3.7153 O   0  0  0  0  0  0  0  0  0  0  0  0
   -0.1956    1.5789   -6.9301 N   0  0  0  0  0  0  0  0  0  0  0  0
    0.3840    2.2935   -7.5712 N   0  0  0  0  0  0  0  0  0  0  0  0
    2.5394    0.0240   -7.2767 S   0  0  0  0  0  0  0  0  0  0  0  0
    3.1707    0.6373   -5.6415 C   0  0  0  0  0  0  0  0  0  0  0  0
    2.4517    1.2708   -8.0921 O   0  0  0  0  0  0  0  0  0  0  0  0
    1.1749   -0.4725   -6.9037 O   0  0  0  0  0  0  0  0  0  0  0  0
    3.4980   -0.9846   -7.7190 O   0  0  0  0  0  0  0  0  0  0  0  0
    4.3572    1.2340   -5.7712 F   0  0  0  0  0  0  0  0  0  0  0  0
    2.2952    1.5431   -5.1369 F   0  0  0  0  0  0  0  0  0  0  0  0
    3.2810   -0.3635   -4.7620 F   0  0  0  0  0  0  0  0  0  0  0  0
  1  6  2  0  0  0  0
  2  3  2  0  0  0  0
  2  1  1  0  0  0  0
  3  4  1  0  0  0  0
  4  9  1  0  0  0  0
  4  5  2  0  0  0  0
  5 10  1  0  0  0  0
  6  5  1  0  0  0  0
  6 11  1  0  0  0  0
  7  1  1  0  0  0  0
  8  2  1  0  0  0  0
 11 12  2  0  0  0  0
 13 11  2  0  0  0  0
 14  3  1  0  0  0  0
 15 14  1  0  0  0  0
 16 19  1  0  0  0  0
 16 17  1  0  0  0  0
 17 22  1  0  0  0  0
 17 23  1  0  0  0  0
 18 16  2  0  0  0  0
 20 16  2  0  0  0  0
 21 17  1  0  0  0  0
M  RAD  3  14   2  15   3  19   2
M  END
