Coordinates from ORCA-job p-NO2-Ph-N2-X-OTf-B3LYPG-6-31G_dp-scan-d09-49-n400
 OpenBabel08281820573D

 23 22  0  0  0  0  0  0  0  0999 V2000
   -1.6560   -0.5902   -4.9822 C   0  0  0  0  0  0  0  0  0  0  0  0
   -0.6812    0.4296   -4.9935 C   0  0  0  0  0  0  0  0  0  0  0  0
   -1.2485    1.7117   -4.9813 C   0  0  0  0  0  0  0  0  0  0  0  0
   -2.6197    2.0621   -4.9583 C   0  0  0  0  0  0  0  0  0  0  0  0
   -3.5202    1.0181   -4.9482 C   0  0  0  0  0  0  0  0  0  0  0  0
   -3.0116   -0.2910   -4.9588 C   0  0  0  0  0  0  0  0  0  0  0  0
   -1.3558   -1.6326   -4.9925 H   0  0  0  0  0  0  0  0  0  0  0  0
    0.7047    0.1334   -5.0548 H   0  0  0  0  0  0  0  0  0  0  0  0
   -2.9457    3.0970   -4.9522 H   0  0  0  0  0  0  0  0  0  0  0  0
   -4.5900    1.1806   -4.9322 H   0  0  0  0  0  0  0  0  0  0  0  0
   -3.9955   -1.4062   -4.9442 N   0  0  0  0  0  0  0  0  0  0  0  0
   -5.1860   -1.1020   -4.9295 O   0  0  0  0  0  0  0  0  0  0  0  0
   -3.5525   -2.5488   -4.9477 O   0  0  0  0  0  0  0  0  0  0  0  0
   -0.3491    2.7783   -4.9814 N   0  0  0  0  0  0  0  0  0  0  0  0
    0.4005    3.6007   -4.9852 N   0  0  0  0  0  0  0  0  0  0  0  0
    2.7141    0.7366   -5.9231 S   0  0  0  0  0  0  0  0  0  0  0  0
    2.9532   -0.2950   -7.4496 C   0  0  0  0  0  0  0  0  0  0  0  0
    1.9739    1.9285   -6.3780 O   0  0  0  0  0  0  0  0  0  0  0  0
    4.0309    0.8986   -5.3223 O   0  0  0  0  0  0  0  0  0  0  0  0
    1.7912   -0.1776   -5.0849 O   0  0  0  0  0  0  0  0  0  0  0  0
    1.7626   -0.5720   -7.9999 F   0  0  0  0  0  0  0  0  0  0  0  0
    3.6926    0.3808   -8.3332 F   0  0  0  0  0  0  0  0  0  0  0  0
    3.5676   -1.4394   -7.1454 F   0  0  0  0  0  0  0  0  0  0  0  0
  1  6  1  0  0  0  0
  2  1  2  0  0  0  0
  2  3  1  0  0  0  0
  3  4  2  0  0  0  0
  4  9  1  0  0  0  0
  4  5  1  0  0  0  0
  5 10  1  0  0  0  0
  6  5  2  0  0  0  0
  6 11  1  0  0  0  0
  7  1  1  0  0  0  0
 11 12  2  0  0  0  0
 13 11  2  0  0  0  0
 14  3  1  0  0  0  0
 15 14  1  0  0  0  0
 16 19  2  0  0  0  0
 16 20  1  0  0  0  0
 17 23  1  0  0  0  0
 17 16  1  0  0  0  0
 18 16  2  0  0  0  0
 20  8  1  0  0  0  0
 21 17  1  0  0  0  0
 22 17  1  0  0  0  0
M  RAD  3   2   2  14   2  15   3
M  END
