Coordinates from ORCA-job p-NO2-Ph-N2-X-OTf-B3LYPG-6-31G_dp-scan-d09-49-n400
 OpenBabel08281820573D

 23 22  0  0  0  0  0  0  0  0999 V2000
   -1.7445   -0.6362   -5.0150 C   0  0  0  0  0  0  0  0  0  0  0  0
   -0.7631    0.3629   -5.0737 C   0  0  0  0  0  0  0  0  0  0  0  0
   -1.2658    1.6705   -5.0212 C   0  0  0  0  0  0  0  0  0  0  0  0
   -2.6199    2.0477   -4.9119 C   0  0  0  0  0  0  0  0  0  0  0  0
   -3.5502    1.0272   -4.8577 C   0  0  0  0  0  0  0  0  0  0  0  0
   -3.0877   -0.2946   -4.9096 C   0  0  0  0  0  0  0  0  0  0  0  0
   -1.4641   -1.6827   -5.0509 H   0  0  0  0  0  0  0  0  0  0  0  0
    0.4225    0.1144   -5.1686 H   0  0  0  0  0  0  0  0  0  0  0  0
   -2.9157    3.0905   -4.8777 H   0  0  0  0  0  0  0  0  0  0  0  0
   -4.6114    1.2225   -4.7757 H   0  0  0  0  0  0  0  0  0  0  0  0
   -4.1000   -1.3817   -4.8449 N   0  0  0  0  0  0  0  0  0  0  0  0
   -5.2771   -1.0431   -4.7560 O   0  0  0  0  0  0  0  0  0  0  0  0
   -3.6879   -2.5347   -4.8845 O   0  0  0  0  0  0  0  0  0  0  0  0
   -0.3234    2.6962   -5.0759 N   0  0  0  0  0  0  0  0  0  0  0  0
    0.5247    3.4134   -5.1687 N   0  0  0  0  0  0  0  0  0  0  0  0
    2.6592    0.7501   -5.9527 S   0  0  0  0  0  0  0  0  0  0  0  0
    3.1986   -0.2343   -7.4327 C   0  0  0  0  0  0  0  0  0  0  0  0
    1.9109    1.8949   -6.5407 O   0  0  0  0  0  0  0  0  0  0  0  0
    3.8753    1.0566   -5.2022 O   0  0  0  0  0  0  0  0  0  0  0  0
    1.7115   -0.2063   -5.2551 O   0  0  0  0  0  0  0  0  0  0  0  0
    2.1312   -0.5893   -8.1640 F   0  0  0  0  0  0  0  0  0  0  0  0
    4.0170    0.4981   -8.1950 F   0  0  0  0  0  0  0  0  0  0  0  0
    3.8393   -1.3409   -7.0438 F   0  0  0  0  0  0  0  0  0  0  0  0
  1  6  2  0  0  0  0
  2  3  2  0  0  0  0
  2  1  1  0  0  0  0
  3  4  1  0  0  0  0
  4  9  1  0  0  0  0
  4  5  2  0  0  0  0
  5 10  1  0  0  0  0
  6  5  1  0  0  0  0
  6 11  1  0  0  0  0
  7  1  1  0  0  0  0
  8  2  1  0  0  0  0
 11 12  2  0  0  0  0
 13 11  2  0  0  0  0
 14  3  1  0  0  0  0
 15 14  1  0  0  0  0
 16 20  2  0  0  0  0
 16 19  1  0  0  0  0
 17 23  1  0  0  0  0
 17 16  1  0  0  0  0
 18 16  2  0  0  0  0
 21 17  1  0  0  0  0
 22 17  1  0  0  0  0
M  RAD  3  14   2  15   3  19   2
M  END
