Coordinates from ORCA-job p-NO2-Ph-N2-X-OTf-B3LYPG-6-31G_dp-scan-d09-49-n400
 OpenBabel08281820583D

 23 22  0  0  0  0  0  0  0  0999 V2000
   -2.5506   -0.6970   -5.6954 C   0  0  0  0  0  0  0  0  0  0  0  0
   -1.5416    0.0015   -6.3454 C   0  0  0  0  0  0  0  0  0  0  0  0
   -1.2288    1.2832   -5.8698 C   0  0  0  0  0  0  0  0  0  0  0  0
   -1.8791    1.8911   -4.7908 C   0  0  0  0  0  0  0  0  0  0  0  0
   -2.8718    1.1709   -4.1379 C   0  0  0  0  0  0  0  0  0  0  0  0
   -3.1891   -0.1026   -4.6071 C   0  0  0  0  0  0  0  0  0  0  0  0
   -2.8397   -1.6916   -6.0087 H   0  0  0  0  0  0  0  0  0  0  0  0
   -0.9992   -0.4137   -7.1854 H   0  0  0  0  0  0  0  0  0  0  0  0
   -1.5992    2.8873   -4.4704 H   0  0  0  0  0  0  0  0  0  0  0  0
   -3.4031    1.5760   -3.2867 H   0  0  0  0  0  0  0  0  0  0  0  0
   -4.2637   -0.8577   -3.9195 N   0  0  0  0  0  0  0  0  0  0  0  0
   -4.8046   -0.3134   -2.9619 O   0  0  0  0  0  0  0  0  0  0  0  0
   -4.5364   -1.9686   -4.3619 O   0  0  0  0  0  0  0  0  0  0  0  0
   -0.2456    2.0115   -6.5416 N   0  0  0  0  0  0  0  0  0  0  0  0
    0.6644    2.1713   -7.1950 N   0  0  0  0  0  0  0  0  0  0  0  0
    2.2553   -0.2248   -6.3512 S   0  0  0  0  0  0  0  0  0  0  0  0
    3.7509    0.8778   -6.3169 C   0  0  0  0  0  0  0  0  0  0  0  0
    1.5313    0.2573   -7.6094 O   0  0  0  0  0  0  0  0  0  0  0  0
    1.4986    0.1420   -5.1364 O   0  0  0  0  0  0  0  0  0  0  0  0
    2.7778   -1.5854   -6.4756 O   0  0  0  0  0  0  0  0  0  0  0  0
    4.4837    0.7197   -7.4214 F   0  0  0  0  0  0  0  0  0  0  0  0
    3.3653    2.1674   -6.2403 F   0  0  0  0  0  0  0  0  0  0  0  0
    4.5047    0.5988   -5.2494 F   0  0  0  0  0  0  0  0  0  0  0  0
  1  6  2  0  0  0  0
  2  3  2  0  0  0  0
  2  1  1  0  0  0  0
  3  4  1  0  0  0  0
  4  9  1  0  0  0  0
  4  5  2  0  0  0  0
  5 10  1  0  0  0  0
  6  5  1  0  0  0  0
  6 11  1  0  0  0  0
  7  1  1  0  0  0  0
  8  2  1  0  0  0  0
 11 12  2  0  0  0  0
 13 11  2  0  0  0  0
 14  3  1  0  0  0  0
 15 14  1  0  0  0  0
 16 17  1  0  0  0  0
 16 19  1  0  0  0  0
 17 22  1  0  0  0  0
 17 23  1  0  0  0  0
 18 16  2  0  0  0  0
 20 16  2  0  0  0  0
 21 17  1  0  0  0  0
M  RAD  3  14   2  15   3  19   2
M  END
