Coordinates from ORCA-job p-NO2-Ph-N2-X-OTf-B3LYPG-6-31G_dp-scan-d09-49-n400
 OpenBabel08281820573D

 23 22  0  0  0  0  0  0  0  0999 V2000
   -1.6383   -0.5691   -4.9591 C   0  0  0  0  0  0  0  0  0  0  0  0
   -0.6655    0.4623   -4.9492 C   0  0  0  0  0  0  0  0  0  0  0  0
   -1.2717    1.7270   -4.9717 C   0  0  0  0  0  0  0  0  0  0  0  0
   -2.6487    2.0643   -5.0008 C   0  0  0  0  0  0  0  0  0  0  0  0
   -3.5317    1.0076   -5.0098 C   0  0  0  0  0  0  0  0  0  0  0  0
   -2.9980   -0.2938   -4.9873 C   0  0  0  0  0  0  0  0  0  0  0  0
   -1.3308   -1.6099   -4.9452 H   0  0  0  0  0  0  0  0  0  0  0  0
    0.9633    0.1240   -4.9623 H   0  0  0  0  0  0  0  0  0  0  0  0
   -2.9901    3.0944   -5.0176 H   0  0  0  0  0  0  0  0  0  0  0  0
   -4.6039    1.1508   -5.0334 H   0  0  0  0  0  0  0  0  0  0  0  0
   -3.9645   -1.4244   -4.9953 N   0  0  0  0  0  0  0  0  0  0  0  0
   -5.1604   -1.1405   -5.0222 O   0  0  0  0  0  0  0  0  0  0  0  0
   -3.5062   -2.5611   -4.9738 O   0  0  0  0  0  0  0  0  0  0  0  0
   -0.3883    2.8089   -4.9565 N   0  0  0  0  0  0  0  0  0  0  0  0
    0.3483    3.6440   -4.9439 N   0  0  0  0  0  0  0  0  0  0  0  0
    2.8156    0.7440   -5.9066 S   0  0  0  0  0  0  0  0  0  0  0  0
    2.8120   -0.3016   -7.4451 C   0  0  0  0  0  0  0  0  0  0  0  0
    2.1048    1.9769   -6.2632 O   0  0  0  0  0  0  0  0  0  0  0  0
    4.1840    0.7818   -5.4224 O   0  0  0  0  0  0  0  0  0  0  0  0
    1.9281   -0.1399   -4.9560 O   0  0  0  0  0  0  0  0  0  0  0  0
    1.5502   -0.5045   -7.8428 F   0  0  0  0  0  0  0  0  0  0  0  0
    3.4791    0.3361   -8.4087 F   0  0  0  0  0  0  0  0  0  0  0  0
    3.3920   -1.4762   -7.2054 F   0  0  0  0  0  0  0  0  0  0  0  0
  1  2  1  0  0  0  0
  1  7  1  0  0  0  0
  3 14  1  0  0  0  0
  3  2  2  0  0  0  0
  4  3  1  0  0  0  0
  5  4  2  0  0  0  0
  5  6  1  0  0  0  0
  6  1  2  0  0  0  0
  8 20  1  0  0  0  0
  9  4  1  0  0  0  0
 10  5  1  0  0  0  0
 11  6  1  0  0  0  0
 11 13  2  0  0  0  0
 12 11  2  0  0  0  0
 14 15  1  0  0  0  0
 16 19  2  0  0  0  0
 16 20  1  0  0  0  0
 17 23  1  0  0  0  0
 17 16  1  0  0  0  0
 18 16  2  0  0  0  0
 21 17  1  0  0  0  0
 22 17  1  0  0  0  0
M  RAD  3   2   2  14   2  15   3
M  END
