Coordinates from ORCA-job p-NO2-Ph-N2-X-OTf-B3LYPG-6-31G_dp-scan-d09-49-n400
 OpenBabel08281820573D

 23 22  0  0  0  0  0  0  0  0999 V2000
   -2.4144   -0.7145   -5.5809 C   0  0  0  0  0  0  0  0  0  0  0  0
   -1.3906    0.0292   -6.1547 C   0  0  0  0  0  0  0  0  0  0  0  0
   -1.2428    1.3601   -5.7358 C   0  0  0  0  0  0  0  0  0  0  0  0
   -2.0655    1.9683   -4.7812 C   0  0  0  0  0  0  0  0  0  0  0  0
   -3.0739    1.2065   -4.2043 C   0  0  0  0  0  0  0  0  0  0  0  0
   -3.2283   -0.1148   -4.6205 C   0  0  0  0  0  0  0  0  0  0  0  0
   -2.5836   -1.7469   -5.8581 H   0  0  0  0  0  0  0  0  0  0  0  0
   -0.7143   -0.3811   -6.8954 H   0  0  0  0  0  0  0  0  0  0  0  0
   -1.9055    3.0020   -4.4983 H   0  0  0  0  0  0  0  0  0  0  0  0
   -3.7379    1.6133   -3.4523 H   0  0  0  0  0  0  0  0  0  0  0  0
   -4.3170   -0.9196   -4.0140 N   0  0  0  0  0  0  0  0  0  0  0  0
   -5.0096   -0.3709   -3.1626 O   0  0  0  0  0  0  0  0  0  0  0  0
   -4.4473   -2.0724   -4.4113 O   0  0  0  0  0  0  0  0  0  0  0  0
   -0.2404    2.1398   -6.3217 N   0  0  0  0  0  0  0  0  0  0  0  0
    0.7020    2.2909   -6.9358 N   0  0  0  0  0  0  0  0  0  0  0  0
    2.2508   -0.1752   -6.3392 S   0  0  0  0  0  0  0  0  0  0  0  0
    3.8526    0.7515   -6.5039 C   0  0  0  0  0  0  0  0  0  0  0  0
    1.4337    0.3996   -7.5048 O   0  0  0  0  0  0  0  0  0  0  0  0
    1.6921    0.2550   -5.0442 O   0  0  0  0  0  0  0  0  0  0  0  0
    2.5805   -1.5863   -6.5375 O   0  0  0  0  0  0  0  0  0  0  0  0
    4.4298    0.4899   -7.6790 F   0  0  0  0  0  0  0  0  0  0  0  0
    3.6221    2.0742   -6.4223 F   0  0  0  0  0  0  0  0  0  0  0  0
    4.6868    0.4025   -5.5202 F   0  0  0  0  0  0  0  0  0  0  0  0
  1  6  2  0  0  0  0
  2  3  2  0  0  0  0
  2  1  1  0  0  0  0
  3  4  1  0  0  0  0
  4  9  1  0  0  0  0
  4  5  2  0  0  0  0
  5 10  1  0  0  0  0
  6  5  1  0  0  0  0
  6 11  1  0  0  0  0
  7  1  1  0  0  0  0
  8  2  1  0  0  0  0
 11 12  2  0  0  0  0
 13 11  2  0  0  0  0
 14  3  1  0  0  0  0
 15 14  2  0  0  0  0
 16 19  1  0  0  0  0
 17 22  1  0  0  0  0
 17 16  1  0  0  0  0
 17 23  1  0  0  0  0
 18 16  2  0  0  0  0
 20 16  2  0  0  0  0
 21 17  1  0  0  0  0
M  RAD  2  15   2  19   2
M  END
