Coordinates from ORCA-job p-NO2-Ph-N2-X-OTf-B3LYPG-6-31G_dp-scan-d09-49-n400
 OpenBabel08281820573D

 23 22  0  0  0  0  0  0  0  0999 V2000
   -2.1803   -0.7317   -5.3440 C   0  0  0  0  0  0  0  0  0  0  0  0
   -1.1742    0.1243   -5.7823 C   0  0  0  0  0  0  0  0  0  0  0  0
   -1.3317    1.4932   -5.5123 C   0  0  0  0  0  0  0  0  0  0  0  0
   -2.4361    2.0274   -4.8337 C   0  0  0  0  0  0  0  0  0  0  0  0
   -3.4310    1.1588   -4.4071 C   0  0  0  0  0  0  0  0  0  0  0  0
   -3.2805   -0.2020   -4.6730 C   0  0  0  0  0  0  0  0  0  0  0  0
   -2.1156   -1.7991   -5.5155 H   0  0  0  0  0  0  0  0  0  0  0  0
   -0.2969   -0.2517   -6.2977 H   0  0  0  0  0  0  0  0  0  0  0  0
   -2.4998    3.0936   -4.6483 H   0  0  0  0  0  0  0  0  0  0  0  0
   -4.3078    1.5090   -3.8781 H   0  0  0  0  0  0  0  0  0  0  0  0
   -4.3460   -1.1282   -4.2156 N   0  0  0  0  0  0  0  0  0  0  0  0
   -5.2980   -0.6320   -3.6205 O   0  0  0  0  0  0  0  0  0  0  0  0
   -4.1983   -2.3185   -4.4672 O   0  0  0  0  0  0  0  0  0  0  0  0
   -0.3440    2.3963   -5.9226 N   0  0  0  0  0  0  0  0  0  0  0  0
    0.6333    2.7089   -6.4053 N   0  0  0  0  0  0  0  0  0  0  0  0
    2.3127    0.2819   -6.1908 S   0  0  0  0  0  0  0  0  0  0  0  0
    4.0260    0.3067   -6.9097 C   0  0  0  0  0  0  0  0  0  0  0  0
    1.4915    0.9945   -7.2667 O   0  0  0  0  0  0  0  0  0  0  0  0
    2.3759    1.0666   -4.9454 O   0  0  0  0  0  0  0  0  0  0  0  0
    1.9390   -1.1375   -6.0919 O   0  0  0  0  0  0  0  0  0  0  0  0
    4.0434   -0.3340   -8.0820 F   0  0  0  0  0  0  0  0  0  0  0  0
    4.4238    1.5704   -7.0984 F   0  0  0  0  0  0  0  0  0  0  0  0
    4.8738   -0.2959   -6.0702 F   0  0  0  0  0  0  0  0  0  0  0  0
  1  6  2  0  0  0  0
  2  3  2  0  0  0  0
  2  1  1  0  0  0  0
  3  4  1  0  0  0  0
  4  9  1  0  0  0  0
  4  5  2  0  0  0  0
  5 10  1  0  0  0  0
  6  5  1  0  0  0  0
  6 11  1  0  0  0  0
  7  1  1  0  0  0  0
  8  2  1  0  0  0  0
 11 12  2  0  0  0  0
 13 11  2  0  0  0  0
 14  3  1  0  0  0  0
 15 14  1  0  0  0  0
 16 20  2  0  0  0  0
 16 19  1  0  0  0  0
 17 16  1  0  0  0  0
 17 23  1  0  0  0  0
 18 16  2  0  0  0  0
 21 17  1  0  0  0  0
 22 17  1  0  0  0  0
M  RAD  3  14   2  15   3  19   2
M  END
