Coordinates from ORCA-job p-NO2-Ph-N2-X-OTf-B3LYPG-6-31G_dp-scan-d09-49-n400
 OpenBabel08281820573D

 23 22  0  0  0  0  0  0  0  0999 V2000
   -1.6315   -0.5606   -4.9441 C   0  0  0  0  0  0  0  0  0  0  0  0
   -0.6596    0.4758   -4.9108 C   0  0  0  0  0  0  0  0  0  0  0  0
   -1.2814    1.7328   -4.9506 C   0  0  0  0  0  0  0  0  0  0  0  0
   -2.6593    2.0655   -5.0155 C   0  0  0  0  0  0  0  0  0  0  0  0
   -3.5346    1.0038   -5.0464 C   0  0  0  0  0  0  0  0  0  0  0  0
   -2.9915   -0.2946   -5.0089 C   0  0  0  0  0  0  0  0  0  0  0  0
   -1.3218   -1.6008   -4.9207 H   0  0  0  0  0  0  0  0  0  0  0  0
    1.1281    0.1218   -4.8911 H   0  0  0  0  0  0  0  0  0  0  0  0
   -3.0062    3.0938   -5.0419 H   0  0  0  0  0  0  0  0  0  0  0  0
   -4.6068    1.1390   -5.0985 H   0  0  0  0  0  0  0  0  0  0  0  0
   -3.9505   -1.4310   -5.0432 N   0  0  0  0  0  0  0  0  0  0  0  0
   -5.1476   -1.1553   -5.1005 O   0  0  0  0  0  0  0  0  0  0  0  0
   -3.4870   -2.5657   -5.0119 O   0  0  0  0  0  0  0  0  0  0  0  0
   -0.4024    2.8188   -4.9176 N   0  0  0  0  0  0  0  0  0  0  0  0
    0.3336    3.6546   -4.8868 N   0  0  0  0  0  0  0  0  0  0  0  0
    2.8580    0.7636   -5.9223 S   0  0  0  0  0  0  0  0  0  0  0  0
    2.7321   -0.3189   -7.4317 C   0  0  0  0  0  0  0  0  0  0  0  0
    2.1412    1.9975   -6.2480 O   0  0  0  0  0  0  0  0  0  0  0  0
    4.2495    0.7740   -5.5145 O   0  0  0  0  0  0  0  0  0  0  0  0
    2.0216   -0.0975   -4.8865 O   0  0  0  0  0  0  0  0  0  0  0  0
    1.4433   -0.5171   -7.7280 F   0  0  0  0  0  0  0  0  0  0  0  0
    3.3317    0.2924   -8.4537 F   0  0  0  0  0  0  0  0  0  0  0  0
    3.3201   -1.4909   -7.2048 F   0  0  0  0  0  0  0  0  0  0  0  0
  1  7  1  0  0  0  0
  1  2  1  0  0  0  0
  3 14  1  0  0  0  0
  3  2  2  0  0  0  0
  4  3  1  0  0  0  0
  5  4  2  0  0  0  0
  5  6  1  0  0  0  0
  6  1  2  0  0  0  0
  8 20  1  0  0  0  0
  9  4  1  0  0  0  0
 10  5  1  0  0  0  0
 11 13  2  0  0  0  0
 11  6  1  0  0  0  0
 12 11  2  0  0  0  0
 14 15  1  0  0  0  0
 16 19  2  0  0  0  0
 16 20  1  0  0  0  0
 17 23  1  0  0  0  0
 17 16  1  0  0  0  0
 18 16  2  0  0  0  0
 21 17  1  0  0  0  0
 22 17  1  0  0  0  0
M  RAD  3   2   2  14   2  15   3
M  END
