Coordinates from ORCA-job p-NO2-Ph-N2-X-OTf-B3LYPG-6-31G_dp-scan-d09-49-n400
 OpenBabel08281820573D

 23 22  0  0  0  0  0  0  0  0999 V2000
   -2.2688   -0.7131   -5.5190 C   0  0  0  0  0  0  0  0  0  0  0  0
   -1.2889    0.1119   -6.0593 C   0  0  0  0  0  0  0  0  0  0  0  0
   -1.3031    1.4649   -5.6843 C   0  0  0  0  0  0  0  0  0  0  0  0
   -2.2442    2.0146   -4.8052 C   0  0  0  0  0  0  0  0  0  0  0  0
   -3.2099    1.1746   -4.2662 C   0  0  0  0  0  0  0  0  0  0  0  0
   -3.2021   -0.1690   -4.6384 C   0  0  0  0  0  0  0  0  0  0  0  0
   -2.3116   -1.7665   -5.7651 H   0  0  0  0  0  0  0  0  0  0  0  0
   -0.5305   -0.2622   -6.7377 H   0  0  0  0  0  0  0  0  0  0  0  0
   -2.2051    3.0674   -4.5507 H   0  0  0  0  0  0  0  0  0  0  0  0
   -3.9605    1.5354   -3.5748 H   0  0  0  0  0  0  0  0  0  0  0  0
   -4.2422   -1.0607   -4.0685 N   0  0  0  0  0  0  0  0  0  0  0  0
   -5.0403   -0.5570   -3.2842 O   0  0  0  0  0  0  0  0  0  0  0  0
   -4.2266   -2.2347   -4.4214 O   0  0  0  0  0  0  0  0  0  0  0  0
   -0.3410    2.3308   -6.2160 N   0  0  0  0  0  0  0  0  0  0  0  0
    0.6112    2.5699   -6.7858 N   0  0  0  0  0  0  0  0  0  0  0  0
    2.1717    0.0710   -6.2741 S   0  0  0  0  0  0  0  0  0  0  0  0
    3.9497    0.4793   -6.6226 C   0  0  0  0  0  0  0  0  0  0  0  0
    1.4449    0.7651   -7.4329 O   0  0  0  0  0  0  0  0  0  0  0  0
    1.8600    0.7154   -4.9855 O   0  0  0  0  0  0  0  0  0  0  0  0
    2.0567   -1.3871   -6.3707 O   0  0  0  0  0  0  0  0  0  0  0  0
    4.3171   -0.0173   -7.8067 F   0  0  0  0  0  0  0  0  0  0  0  0
    4.1137    1.8093   -6.6396 F   0  0  0  0  0  0  0  0  0  0  0  0
    4.7289   -0.0409   -5.6695 F   0  0  0  0  0  0  0  0  0  0  0  0
  1  6  2  0  0  0  0
  2  3  2  0  0  0  0
  2  1  1  0  0  0  0
  3  4  1  0  0  0  0
  4  9  1  0  0  0  0
  4  5  2  0  0  0  0
  5 10  1  0  0  0  0
  6  5  1  0  0  0  0
  6 11  1  0  0  0  0
  7  1  1  0  0  0  0
  8  2  1  0  0  0  0
 11 12  2  0  0  0  0
 13 11  2  0  0  0  0
 14  3  1  0  0  0  0
 15 14  2  0  0  0  0
 16 19  1  0  0  0  0
 17 16  1  0  0  0  0
 17 23  1  0  0  0  0
 18 16  2  0  0  0  0
 20 16  2  0  0  0  0
 21 17  1  0  0  0  0
 22 17  1  0  0  0  0
M  RAD  2  15   2  19   2
M  END
