Coordinates from ORCA-job p-NO2-Ph-N2-X-OTf-B3LYPG-6-31G_dp-scan-d09-49-n400
 OpenBabel08281820573D

 23 22  0  0  0  0  0  0  0  0999 V2000
   -1.6421   -0.5798   -4.9731 C   0  0  0  0  0  0  0  0  0  0  0  0
   -0.6694    0.4460   -4.9735 C   0  0  0  0  0  0  0  0  0  0  0  0
   -1.2543    1.7204   -4.9754 C   0  0  0  0  0  0  0  0  0  0  0  0
   -2.6286    2.0637   -4.9757 C   0  0  0  0  0  0  0  0  0  0  0  0
   -3.5207    1.0134   -4.9756 C   0  0  0  0  0  0  0  0  0  0  0  0
   -3.0001   -0.2920   -4.9728 C   0  0  0  0  0  0  0  0  0  0  0  0
   -1.3375   -1.6212   -4.9738 H   0  0  0  0  0  0  0  0  0  0  0  0
    0.8026    0.1350   -5.0160 H   0  0  0  0  0  0  0  0  0  0  0  0
   -2.9623    3.0963   -4.9788 H   0  0  0  0  0  0  0  0  0  0  0  0
   -4.5919    1.1667   -4.9776 H   0  0  0  0  0  0  0  0  0  0  0  0
   -3.9756   -1.4147   -4.9698 N   0  0  0  0  0  0  0  0  0  0  0  0
   -5.1689   -1.1202   -4.9743 O   0  0  0  0  0  0  0  0  0  0  0  0
   -3.5248   -2.5544   -4.9629 O   0  0  0  0  0  0  0  0  0  0  0  0
   -0.3631    2.7947   -4.9670 N   0  0  0  0  0  0  0  0  0  0  0  0
    0.3786    3.6245   -4.9621 N   0  0  0  0  0  0  0  0  0  0  0  0
    2.7524    0.7388   -5.9132 S   0  0  0  0  0  0  0  0  0  0  0  0
    2.8850   -0.3019   -7.4474 C   0  0  0  0  0  0  0  0  0  0  0  0
    2.0246    1.9492   -6.3270 O   0  0  0  0  0  0  0  0  0  0  0  0
    4.0950    0.8475   -5.3642 O   0  0  0  0  0  0  0  0  0  0  0  0
    1.8422   -0.1593   -5.0263 O   0  0  0  0  0  0  0  0  0  0  0  0
    1.6595   -0.5497   -7.9294 F   0  0  0  0  0  0  0  0  0  0  0  0
    3.5911    0.3566   -8.3696 F   0  0  0  0  0  0  0  0  0  0  0  0
    3.4877   -1.4587   -7.1723 F   0  0  0  0  0  0  0  0  0  0  0  0
  1  6  2  0  0  0  0
  2  1  1  0  0  0  0
  3  2  2  0  0  0  0
  3 14  1  0  0  0  0
  4  5  2  0  0  0  0
  4  3  1  0  0  0  0
  5  6  1  0  0  0  0
  6 11  1  0  0  0  0
  7  1  1  0  0  0  0
  9  4  1  0  0  0  0
 10  5  1  0  0  0  0
 11 13  2  0  0  0  0
 12 11  2  0  0  0  0
 14 15  1  0  0  0  0
 16 19  2  0  0  0  0
 16 20  1  0  0  0  0
 17 23  1  0  0  0  0
 17 16  1  0  0  0  0
 18 16  2  0  0  0  0
 20  8  1  0  0  0  0
 21 17  1  0  0  0  0
 22 17  1  0  0  0  0
M  RAD  3   2   2  14   2  15   3
M  END
