Coordinates from ORCA-job p-NO2-Ph-N2-X-OTf-B3LYPG-6-31G_dp-scan-d09-49-n400
 OpenBabel08281820583D

 23 22  0  0  0  0  0  0  0  0999 V2000
   -2.6111   -0.6849   -5.7422 C   0  0  0  0  0  0  0  0  0  0  0  0
   -1.6106   -0.0003   -6.4192 C   0  0  0  0  0  0  0  0  0  0  0  0
   -1.2303    1.2541   -5.9205 C   0  0  0  0  0  0  0  0  0  0  0  0
   -1.8076    1.8498   -4.7943 C   0  0  0  0  0  0  0  0  0  0  0  0
   -2.7920    1.1421   -4.1160 C   0  0  0  0  0  0  0  0  0  0  0  0
   -3.1762   -0.1047   -4.6066 C   0  0  0  0  0  0  0  0  0  0  0  0
   -2.9490   -1.6591   -6.0708 H   0  0  0  0  0  0  0  0  0  0  0  0
   -1.1256   -0.4090   -7.2964 H   0  0  0  0  0  0  0  0  0  0  0  0
   -1.4778    2.8248   -4.4571 H   0  0  0  0  0  0  0  0  0  0  0  0
   -3.2668    1.5374   -3.2277 H   0  0  0  0  0  0  0  0  0  0  0  0
   -4.2418   -0.8447   -3.8909 N   0  0  0  0  0  0  0  0  0  0  0  0
   -4.7143   -0.3151   -2.8897 O   0  0  0  0  0  0  0  0  0  0  0  0
   -4.5768   -1.9297   -4.3548 O   0  0  0  0  0  0  0  0  0  0  0  0
   -0.2556    1.9662   -6.6193 N   0  0  0  0  0  0  0  0  0  0  0  0
    0.6448    2.1359   -7.2811 N   0  0  0  0  0  0  0  0  0  0  0  0
    2.2549   -0.2172   -6.3324 S   0  0  0  0  0  0  0  0  0  0  0  0
    3.7264    0.9151   -6.2611 C   0  0  0  0  0  0  0  0  0  0  0  0
    1.5740    0.2230   -7.6264 O   0  0  0  0  0  0  0  0  0  0  0  0
    1.4455    0.1633   -5.1550 O   0  0  0  0  0  0  0  0  0  0  0  0
    2.8081   -1.5697   -6.3998 O   0  0  0  0  0  0  0  0  0  0  0  0
    4.5137    0.7423   -7.3251 F   0  0  0  0  0  0  0  0  0  0  0  0
    3.3126    2.1988   -6.2396 F   0  0  0  0  0  0  0  0  0  0  0  0
    4.4349    0.6828   -5.1521 F   0  0  0  0  0  0  0  0  0  0  0  0
  1  6  2  0  0  0  0
  2  3  2  0  0  0  0
  2  1  1  0  0  0  0
  3  4  1  0  0  0  0
  4  9  1  0  0  0  0
  4  5  2  0  0  0  0
  5 10  1  0  0  0  0
  6  5  1  0  0  0  0
  6 11  1  0  0  0  0
  7  1  1  0  0  0  0
  8  2  1  0  0  0  0
 11 12  2  0  0  0  0
 13 11  2  0  0  0  0
 14  3  1  0  0  0  0
 15 14  1  0  0  0  0
 16 17  1  0  0  0  0
 16 19  1  0  0  0  0
 17 22  1  0  0  0  0
 17 23  1  0  0  0  0
 18 16  2  0  0  0  0
 20 16  2  0  0  0  0
 21 17  1  0  0  0  0
M  RAD  3  14   2  15   3  19   2
M  END
