Coordinates from ORCA-job p-NO2-Ph-N2-X-OTf-B3LYPG-6-31G_dp-scan-d09-49-n400
 OpenBabel08281820573D

 23 22  0  0  0  0  0  0  0  0999 V2000
   -1.9900   -0.7181   -5.0252 C   0  0  0  0  0  0  0  0  0  0  0  0
   -0.9544    0.1984   -5.1958 C   0  0  0  0  0  0  0  0  0  0  0  0
   -1.2992    1.5569   -5.1355 C   0  0  0  0  0  0  0  0  0  0  0  0
   -2.5987    2.0310   -4.9019 C   0  0  0  0  0  0  0  0  0  0  0  0
   -3.6143    1.0993   -4.7467 C   0  0  0  0  0  0  0  0  0  0  0  0
   -3.2859   -0.2558   -4.8110 C   0  0  0  0  0  0  0  0  0  0  0  0
   -1.7966   -1.7833   -5.0587 H   0  0  0  0  0  0  0  0  0  0  0  0
    0.0790   -0.1316   -5.3535 H   0  0  0  0  0  0  0  0  0  0  0  0
   -2.7965    3.0959   -4.8554 H   0  0  0  0  0  0  0  0  0  0  0  0
   -4.6404    1.3957   -4.5728 H   0  0  0  0  0  0  0  0  0  0  0  0
   -4.3750   -1.2487   -4.6349 N   0  0  0  0  0  0  0  0  0  0  0  0
   -5.5058   -0.8088   -4.4484 O   0  0  0  0  0  0  0  0  0  0  0  0
   -4.0663   -2.4336   -4.6888 O   0  0  0  0  0  0  0  0  0  0  0  0
   -0.2900    2.5151   -5.2959 N   0  0  0  0  0  0  0  0  0  0  0  0
    0.7067    2.9379   -5.6220 N   0  0  0  0  0  0  0  0  0  0  0  0
    2.5619    0.6006   -6.0379 S   0  0  0  0  0  0  0  0  0  0  0  0
    3.7554    0.0237   -7.3432 C   0  0  0  0  0  0  0  0  0  0  0  0
    1.5840    1.4323   -6.8567 O   0  0  0  0  0  0  0  0  0  0  0  0
    3.3424    1.3867   -5.0763 O   0  0  0  0  0  0  0  0  0  0  0  0
    1.9152   -0.6351   -5.5349 O   0  0  0  0  0  0  0  0  0  0  0  0
    3.1098   -0.6746   -8.2841 F   0  0  0  0  0  0  0  0  0  0  0  0
    4.3527    1.0738   -7.9147 F   0  0  0  0  0  0  0  0  0  0  0  0
    4.6854   -0.7565   -6.7838 F   0  0  0  0  0  0  0  0  0  0  0  0
  1  6  2  0  0  0  0
  2  3  2  0  0  0  0
  2  1  1  0  0  0  0
  3  4  1  0  0  0  0
  4  9  1  0  0  0  0
  4  5  2  0  0  0  0
  5 10  1  0  0  0  0
  6  5  1  0  0  0  0
  6 11  1  0  0  0  0
  7  1  1  0  0  0  0
  8  2  1  0  0  0  0
 11 12  2  0  0  0  0
 13 11  2  0  0  0  0
 14  3  1  0  0  0  0
 15 14  1  0  0  0  0
 16 20  2  0  0  0  0
 16 19  1  0  0  0  0
 17 23  1  0  0  0  0
 17 16  1  0  0  0  0
 18 16  2  0  0  0  0
 21 17  1  0  0  0  0
 22 17  1  0  0  0  0
M  RAD  3  14   2  15   3  19   2
M  END
