Coordinates from ORCA-job p-NO2-Ph-N2-X-OTf-B3LYPG-6-31G_dp-scan-d09-49-n400
 OpenBabel08281820573D

 23 22  0  0  0  0  0  0  0  0999 V2000
   -2.3709   -0.7178   -5.5448 C   0  0  0  0  0  0  0  0  0  0  0  0
   -1.3485    0.0459   -6.0953 C   0  0  0  0  0  0  0  0  0  0  0  0
   -1.2548    1.3880   -5.6957 C   0  0  0  0  0  0  0  0  0  0  0  0
   -2.1292    1.9866   -4.7813 C   0  0  0  0  0  0  0  0  0  0  0  0
   -3.1372    1.2062   -4.2293 C   0  0  0  0  0  0  0  0  0  0  0  0
   -3.2374   -0.1261   -4.6267 C   0  0  0  0  0  0  0  0  0  0  0  0
   -2.4992   -1.7595   -5.8095 H   0  0  0  0  0  0  0  0  0  0  0  0
   -0.6349   -0.3573   -6.8047 H   0  0  0  0  0  0  0  0  0  0  0  0
   -2.0087    3.0289   -4.5103 H   0  0  0  0  0  0  0  0  0  0  0  0
   -3.8407    1.6060   -3.5102 H   0  0  0  0  0  0  0  0  0  0  0  0
   -4.3241   -0.9523   -4.0458 N   0  0  0  0  0  0  0  0  0  0  0  0
   -5.0679   -0.4076   -3.2359 O   0  0  0  0  0  0  0  0  0  0  0  0
   -4.4045   -2.1160   -4.4240 O   0  0  0  0  0  0  0  0  0  0  0  0
   -0.2518    2.1902   -6.2509 N   0  0  0  0  0  0  0  0  0  0  0  0
    0.7014    2.3523   -6.8470 N   0  0  0  0  0  0  0  0  0  0  0  0
    2.2444   -0.1266   -6.3219 S   0  0  0  0  0  0  0  0  0  0  0  0
    3.8949    0.6893   -6.5702 C   0  0  0  0  0  0  0  0  0  0  0  0
    1.4176    0.4844   -7.4633 O   0  0  0  0  0  0  0  0  0  0  0  0
    1.7679    0.3527   -5.0120 O   0  0  0  0  0  0  0  0  0  0  0  0
    2.4634   -1.5600   -6.5156 O   0  0  0  0  0  0  0  0  0  0  0  0
    4.4037    0.3637   -7.7607 F   0  0  0  0  0  0  0  0  0  0  0  0
    3.7523    2.0241   -6.5113 F   0  0  0  0  0  0  0  0  0  0  0  0
    4.7436    0.3059   -5.6120 F   0  0  0  0  0  0  0  0  0  0  0  0
  1  6  2  0  0  0  0
  2  3  2  0  0  0  0
  2  1  1  0  0  0  0
  3  4  1  0  0  0  0
  4  9  1  0  0  0  0
  4  5  2  0  0  0  0
  5 10  1  0  0  0  0
  6  5  1  0  0  0  0
  6 11  1  0  0  0  0
  7  1  1  0  0  0  0
  8  2  1  0  0  0  0
 11 12  2  0  0  0  0
 13 11  2  0  0  0  0
 14  3  1  0  0  0  0
 15 14  2  0  0  0  0
 16 19  1  0  0  0  0
 17 22  1  0  0  0  0
 17 16  1  0  0  0  0
 17 23  1  0  0  0  0
 18 16  2  0  0  0  0
 20 16  2  0  0  0  0
 21 17  1  0  0  0  0
M  RAD  2  15   2  19   2
M  END
