Coordinates from ORCA-job p-NO2-Ph-N2-X-OTf-B3LYPG-6-31G_dp-scan-d09-49-n400
 OpenBabel08281820573D

 23 22  0  0  0  0  0  0  0  0999 V2000
   -1.9482   -0.7081   -5.0269 C   0  0  0  0  0  0  0  0  0  0  0  0
   -0.9242    0.2266   -5.1728 C   0  0  0  0  0  0  0  0  0  0  0  0
   -1.2992    1.5767   -5.1124 C   0  0  0  0  0  0  0  0  0  0  0  0
   -2.6110    2.0301   -4.9028 C   0  0  0  0  0  0  0  0  0  0  0  0
   -3.6109    1.0791   -4.7700 C   0  0  0  0  0  0  0  0  0  0  0  0
   -3.2556   -0.2700   -4.8343 C   0  0  0  0  0  0  0  0  0  0  0  0
   -1.7360   -1.7699   -5.0622 H   0  0  0  0  0  0  0  0  0  0  0  0
    0.1280   -0.0804   -5.3116 H   0  0  0  0  0  0  0  0  0  0  0  0
   -2.8291    3.0911   -4.8570 H   0  0  0  0  0  0  0  0  0  0  0  0
   -4.6455    1.3552   -4.6141 H   0  0  0  0  0  0  0  0  0  0  0  0
   -4.3303   -1.2829   -4.6822 N   0  0  0  0  0  0  0  0  0  0  0  0
   -5.4716   -0.8636   -4.5125 O   0  0  0  0  0  0  0  0  0  0  0  0
   -4.0003   -2.4618   -4.7374 O   0  0  0  0  0  0  0  0  0  0  0  0
   -0.3001    2.5461   -5.2521 N   0  0  0  0  0  0  0  0  0  0  0  0
    0.6797    3.0245   -5.5392 N   0  0  0  0  0  0  0  0  0  0  0  0
    2.5807    0.6714   -6.0236 S   0  0  0  0  0  0  0  0  0  0  0  0
    3.6701   -0.0463   -7.3495 C   0  0  0  0  0  0  0  0  0  0  0  0
    1.6472    1.5562   -6.8278 O   0  0  0  0  0  0  0  0  0  0  0  0
    3.4646    1.3998   -5.1086 O   0  0  0  0  0  0  0  0  0  0  0  0
    1.8540   -0.4984   -5.4620 O   0  0  0  0  0  0  0  0  0  0  0  0
    2.9320   -0.7102   -8.2471 F   0  0  0  0  0  0  0  0  0  0  0  0
    4.3386    0.9282   -7.9737 F   0  0  0  0  0  0  0  0  0  0  0  0
    4.5464   -0.8923   -6.7984 F   0  0  0  0  0  0  0  0  0  0  0  0
  1  6  2  0  0  0  0
  2  3  2  0  0  0  0
  2  1  1  0  0  0  0
  3  4  1  0  0  0  0
  4  9  1  0  0  0  0
  4  5  2  0  0  0  0
  5 10  1  0  0  0  0
  6  5  1  0  0  0  0
  6 11  1  0  0  0  0
  7  1  1  0  0  0  0
  8  2  1  0  0  0  0
 11 12  2  0  0  0  0
 13 11  2  0  0  0  0
 14  3  1  0  0  0  0
 15 14  1  0  0  0  0
 16 20  2  0  0  0  0
 16 19  1  0  0  0  0
 17 23  1  0  0  0  0
 17 16  1  0  0  0  0
 18 16  2  0  0  0  0
 21 17  1  0  0  0  0
 22 17  1  0  0  0  0
M  RAD  3  14   2  15   3  19   2
M  END
