Coordinates from ORCA-job p-NO2-Ph-N2-X-OTf-B3LYPG-6-31G_dp-scan-d09-49-n400
 OpenBabel08281820583D

 23 22  0  0  0  0  0  0  0  0999 V2000
   -2.6805   -0.6721   -5.7833 C   0  0  0  0  0  0  0  0  0  0  0  0
   -1.6887   -0.0059   -6.4905 C   0  0  0  0  0  0  0  0  0  0  0  0
   -1.2325    1.2157   -5.9748 C   0  0  0  0  0  0  0  0  0  0  0  0
   -1.7280    1.7981   -4.8034 C   0  0  0  0  0  0  0  0  0  0  0  0
   -2.7056    1.1086   -4.0980 C   0  0  0  0  0  0  0  0  0  0  0  0
   -3.1648   -0.1064   -4.6041 C   0  0  0  0  0  0  0  0  0  0  0  0
   -3.0732   -1.6219   -6.1224 H   0  0  0  0  0  0  0  0  0  0  0  0
   -1.2682   -0.4078   -7.4034 H   0  0  0  0  0  0  0  0  0  0  0  0
   -1.3399    2.7465   -4.4526 H   0  0  0  0  0  0  0  0  0  0  0  0
   -3.1182    1.4940   -3.1750 H   0  0  0  0  0  0  0  0  0  0  0  0
   -4.2222   -0.8262   -3.8577 N   0  0  0  0  0  0  0  0  0  0  0  0
   -4.6265   -0.3074   -2.8216 O   0  0  0  0  0  0  0  0  0  0  0  0
   -4.6214   -1.8840   -4.3338 O   0  0  0  0  0  0  0  0  0  0  0  0
   -0.2660    1.9069   -6.7022 N   0  0  0  0  0  0  0  0  0  0  0  0
    0.6203    2.1012   -7.3726 N   0  0  0  0  0  0  0  0  0  0  0  0
    2.2604   -0.2066   -6.3246 S   0  0  0  0  0  0  0  0  0  0  0  0
    3.7019    0.9580   -6.1958 C   0  0  0  0  0  0  0  0  0  0  0  0
    1.6393    0.1985   -7.6551 O   0  0  0  0  0  0  0  0  0  0  0  0
    1.3865    0.1787   -5.1935 O   0  0  0  0  0  0  0  0  0  0  0  0
    2.8430   -1.5485   -6.3329 O   0  0  0  0  0  0  0  0  0  0  0  0
    4.5478    0.7869   -7.2143 F   0  0  0  0  0  0  0  0  0  0  0  0
    3.2585    2.2326   -6.2187 F   0  0  0  0  0  0  0  0  0  0  0  0
    4.3574    0.7618   -5.0477 F   0  0  0  0  0  0  0  0  0  0  0  0
  1  6  2  0  0  0  0
  2  3  2  0  0  0  0
  2  1  1  0  0  0  0
  3  4  1  0  0  0  0
  4  9  1  0  0  0  0
  4  5  2  0  0  0  0
  5 10  1  0  0  0  0
  6  5  1  0  0  0  0
  6 11  1  0  0  0  0
  7  1  1  0  0  0  0
  8  2  1  0  0  0  0
 11 12  2  0  0  0  0
 13 11  2  0  0  0  0
 14  3  1  0  0  0  0
 15 14  1  0  0  0  0
 16 17  1  0  0  0  0
 16 19  1  0  0  0  0
 17 23  1  0  0  0  0
 18 16  2  0  0  0  0
 20 16  2  0  0  0  0
 21 17  1  0  0  0  0
 22 17  1  0  0  0  0
M  RAD  3  14   2  15   3  19   2
M  END
