Coordinates from ORCA-job p-NO2-Ph-N2-X-OTf-B3LYPG-6-31G_dp-scan-d09-49-n400
 OpenBabel08281820573D

 23 22  0  0  0  0  0  0  0  0999 V2000
   -2.2960   -0.7146   -5.5243 C   0  0  0  0  0  0  0  0  0  0  0  0
   -1.3036    0.0930   -6.0677 C   0  0  0  0  0  0  0  0  0  0  0  0
   -1.2880    1.4444   -5.6874 C   0  0  0  0  0  0  0  0  0  0  0  0
   -2.2117    2.0092   -4.7999 C   0  0  0  0  0  0  0  0  0  0  0  0
   -3.1900    1.1862   -4.2569 C   0  0  0  0  0  0  0  0  0  0  0  0
   -3.2117   -0.1556   -4.6342 C   0  0  0  0  0  0  0  0  0  0  0  0
   -2.3625   -1.7658   -5.7744 H   0  0  0  0  0  0  0  0  0  0  0  0
   -0.5575   -0.2896   -6.7550 H   0  0  0  0  0  0  0  0  0  0  0  0
   -2.1501    3.0600   -4.5420 H   0  0  0  0  0  0  0  0  0  0  0  0
   -3.9284    1.5592   -3.5588 H   0  0  0  0  0  0  0  0  0  0  0  0
   -4.2650   -1.0289   -4.0605 N   0  0  0  0  0  0  0  0  0  0  0  0
   -5.0506   -0.5118   -3.2721 O   0  0  0  0  0  0  0  0  0  0  0  0
   -4.2755   -2.2014   -4.4186 O   0  0  0  0  0  0  0  0  0  0  0  0
   -0.3128    2.2927   -6.2241 N   0  0  0  0  0  0  0  0  0  0  0  0
    0.6420    2.5046   -6.8014 N   0  0  0  0  0  0  0  0  0  0  0  0
    2.1872    0.0048   -6.2903 S   0  0  0  0  0  0  0  0  0  0  0  0
    3.9359    0.5437   -6.6073 C   0  0  0  0  0  0  0  0  0  0  0  0
    1.4292    0.6810   -7.4411 O   0  0  0  0  0  0  0  0  0  0  0  0
    1.8214    0.5979   -4.9915 O   0  0  0  0  0  0  0  0  0  0  0  0
    2.1715   -1.4535   -6.4249 O   0  0  0  0  0  0  0  0  0  0  0  0
    4.3523    0.1011   -7.7962 F   0  0  0  0  0  0  0  0  0  0  0  0
    4.0036    1.8831   -6.5948 F   0  0  0  0  0  0  0  0  0  0  0  0
    4.7398    0.0614   -5.6548 F   0  0  0  0  0  0  0  0  0  0  0  0
  1  6  2  0  0  0  0
  2  3  2  0  0  0  0
  2  1  1  0  0  0  0
  3  4  1  0  0  0  0
  4  9  1  0  0  0  0
  4  5  2  0  0  0  0
  5 10  1  0  0  0  0
  6  5  1  0  0  0  0
  6 11  1  0  0  0  0
  7  1  1  0  0  0  0
  8  2  1  0  0  0  0
 11 12  2  0  0  0  0
 13 11  2  0  0  0  0
 14  3  1  0  0  0  0
 15 14  2  0  0  0  0
 16 19  1  0  0  0  0
 17 22  1  0  0  0  0
 17 16  1  0  0  0  0
 17 23  1  0  0  0  0
 18 16  2  0  0  0  0
 20 16  2  0  0  0  0
 21 17  1  0  0  0  0
M  RAD  2  15   2  19   2
M  END
