Coordinates from ORCA-job p-NO2-Ph-N2-X-OTf-B3LYPG-6-31G_dp-scan-d09-49-n400
 OpenBabel08281820573D

 23 22  0  0  0  0  0  0  0  0999 V2000
   -2.3686   -0.7176   -5.5437 C   0  0  0  0  0  0  0  0  0  0  0  0
   -1.3468    0.0474   -6.0933 C   0  0  0  0  0  0  0  0  0  0  0  0
   -1.2559    1.3900   -5.6945 C   0  0  0  0  0  0  0  0  0  0  0  0
   -2.1327    1.9877   -4.7819 C   0  0  0  0  0  0  0  0  0  0  0  0
   -3.1403    1.2061   -4.2308 C   0  0  0  0  0  0  0  0  0  0  0  0
   -3.2376   -0.1267   -4.6274 C   0  0  0  0  0  0  0  0  0  0  0  0
   -2.4948   -1.7597   -5.8078 H   0  0  0  0  0  0  0  0  0  0  0  0
   -0.6316   -0.3551   -6.8014 H   0  0  0  0  0  0  0  0  0  0  0  0
   -2.0142    3.0304   -4.5114 H   0  0  0  0  0  0  0  0  0  0  0  0
   -3.8455    1.6052   -3.5131 H   0  0  0  0  0  0  0  0  0  0  0  0
   -4.3237   -0.9543   -4.0474 N   0  0  0  0  0  0  0  0  0  0  0  0
   -5.0682   -0.4109   -3.2373 O   0  0  0  0  0  0  0  0  0  0  0  0
   -4.4000   -2.1191   -4.4229 O   0  0  0  0  0  0  0  0  0  0  0  0
   -0.2532    2.1935   -6.2484 N   0  0  0  0  0  0  0  0  0  0  0  0
    0.7003    2.3568   -6.8436 N   0  0  0  0  0  0  0  0  0  0  0  0
    2.2433   -0.1235   -6.3210 S   0  0  0  0  0  0  0  0  0  0  0  0
    3.8970    0.6850   -6.5725 C   0  0  0  0  0  0  0  0  0  0  0  0
    1.4175    0.4906   -7.4620 O   0  0  0  0  0  0  0  0  0  0  0  0
    1.7705    0.3586   -5.0109 O   0  0  0  0  0  0  0  0  0  0  0  0
    2.4559   -1.5583   -6.5138 O   0  0  0  0  0  0  0  0  0  0  0  0
    4.4026    0.3560   -7.7634 F   0  0  0  0  0  0  0  0  0  0  0  0
    3.7601    2.0203   -6.5147 F   0  0  0  0  0  0  0  0  0  0  0  0
    4.7453    0.2988   -5.6151 F   0  0  0  0  0  0  0  0  0  0  0  0
  1  6  2  0  0  0  0
  2  3  2  0  0  0  0
  2  1  1  0  0  0  0
  3  4  1  0  0  0  0
  4  9  1  0  0  0  0
  4  5  2  0  0  0  0
  5 10  1  0  0  0  0
  6  5  1  0  0  0  0
  6 11  1  0  0  0  0
  7  1  1  0  0  0  0
  8  2  1  0  0  0  0
 11 12  2  0  0  0  0
 13 11  2  0  0  0  0
 14  3  1  0  0  0  0
 15 14  2  0  0  0  0
 16 19  1  0  0  0  0
 17 22  1  0  0  0  0
 17 16  1  0  0  0  0
 17 23  1  0  0  0  0
 18 16  2  0  0  0  0
 20 16  2  0  0  0  0
 21 17  1  0  0  0  0
M  RAD  2  15   2  19   2
M  END
