Coordinates from ORCA-job p-NO2-Ph-N2-X-OTf-B3LYPG-6-31G_dp-scan-d09-49-n400
 OpenBabel08281820583D

 23 22  0  0  0  0  0  0  0  0999 V2000
   -2.4521   -0.7100   -5.6174 C   0  0  0  0  0  0  0  0  0  0  0  0
   -1.4340    0.0181   -6.2201 C   0  0  0  0  0  0  0  0  0  0  0  0
   -1.2348    1.3367   -5.7852 C   0  0  0  0  0  0  0  0  0  0  0  0
   -2.0021    1.9495   -4.7887 C   0  0  0  0  0  0  0  0  0  0  0  0
   -3.0038    1.2020   -4.1820 C   0  0  0  0  0  0  0  0  0  0  0  0
   -3.2093   -0.1075   -4.6132 C   0  0  0  0  0  0  0  0  0  0  0  0
   -2.6590   -1.7329   -5.9042 H   0  0  0  0  0  0  0  0  0  0  0  0
   -0.7996   -0.3966   -6.9941 H   0  0  0  0  0  0  0  0  0  0  0  0
   -1.8049    2.9739   -4.4961 H   0  0  0  0  0  0  0  0  0  0  0  0
   -3.6250    1.6116   -3.3959 H   0  0  0  0  0  0  0  0  0  0  0  0
   -4.2918   -0.8955   -3.9750 N   0  0  0  0  0  0  0  0  0  0  0  0
   -4.9329   -0.3457   -3.0849 O   0  0  0  0  0  0  0  0  0  0  0  0
   -4.4691   -2.0368   -4.3871 O   0  0  0  0  0  0  0  0  0  0  0  0
   -0.2396    2.0977   -6.4044 N   0  0  0  0  0  0  0  0  0  0  0  0
    0.6897    2.2497   -7.0359 N   0  0  0  0  0  0  0  0  0  0  0  0
    2.2450   -0.2064   -6.3588 S   0  0  0  0  0  0  0  0  0  0  0  0
    3.8071    0.7975   -6.4262 C   0  0  0  0  0  0  0  0  0  0  0  0
    1.4622    0.3447   -7.5564 O   0  0  0  0  0  0  0  0  0  0  0  0
    1.6023    0.1819   -5.0885 O   0  0  0  0  0  0  0  0  0  0  0  0
    2.6582   -1.5965   -6.5494 O   0  0  0  0  0  0  0  0  0  0  0  0
    4.4497    0.5964   -7.5790 F   0  0  0  0  0  0  0  0  0  0  0  0
    3.5112    2.1068   -6.3221 F   0  0  0  0  0  0  0  0  0  0  0  0
    4.6120    0.4623   -5.4136 F   0  0  0  0  0  0  0  0  0  0  0  0
  1  6  2  0  0  0  0
  2  3  2  0  0  0  0
  2  1  1  0  0  0  0
  3  4  1  0  0  0  0
  4  9  1  0  0  0  0
  4  5  2  0  0  0  0
  5 10  1  0  0  0  0
  6  5  1  0  0  0  0
  6 11  1  0  0  0  0
  7  1  1  0  0  0  0
  8  2  1  0  0  0  0
 11 12  2  0  0  0  0
 13 11  2  0  0  0  0
 14  3  1  0  0  0  0
 15 14  2  0  0  0  0
 16 19  1  0  0  0  0
 17 16  1  0  0  0  0
 17 22  1  0  0  0  0
 17 23  1  0  0  0  0
 18 16  2  0  0  0  0
 20 16  2  0  0  0  0
 21 17  1  0  0  0  0
M  RAD  2  15   2  19   2
M  END
