Coordinates from ORCA-job p-NO2-Ph-N2-X-OTf-B3LYPG-6-31G_dp-scan-d09-49-n400
 OpenBabel08281820583D

 23 22  0  0  0  0  0  0  0  0999 V2000
   -2.4992   -0.7045   -5.6553 C   0  0  0  0  0  0  0  0  0  0  0  0
   -1.4852    0.0074   -6.2830 C   0  0  0  0  0  0  0  0  0  0  0  0
   -1.2297    1.3095   -5.8288 C   0  0  0  0  0  0  0  0  0  0  0  0
   -1.9389    1.9231   -4.7909 C   0  0  0  0  0  0  0  0  0  0  0  0
   -2.9364    1.1905   -4.1595 C   0  0  0  0  0  0  0  0  0  0  0  0
   -3.1976   -0.1028   -4.6087 C   0  0  0  0  0  0  0  0  0  0  0  0
   -2.7471   -1.7146   -5.9544 H   0  0  0  0  0  0  0  0  0  0  0  0
   -0.8957   -0.4096   -7.0900 H   0  0  0  0  0  0  0  0  0  0  0  0
   -1.7006    2.9349   -4.4855 H   0  0  0  0  0  0  0  0  0  0  0  0
   -3.5133    1.6003   -3.3406 H   0  0  0  0  0  0  0  0  0  0  0  0
   -4.2767   -0.8730   -3.9443 N   0  0  0  0  0  0  0  0  0  0  0  0
   -4.8686   -0.3231   -3.0207 O   0  0  0  0  0  0  0  0  0  0  0  0
   -4.5013   -2.0009   -4.3703 O   0  0  0  0  0  0  0  0  0  0  0  0
   -0.2402    2.0523   -6.4767 N   0  0  0  0  0  0  0  0  0  0  0  0
    0.6780    2.2073   -7.1215 N   0  0  0  0  0  0  0  0  0  0  0  0
    2.2501   -0.2241   -6.3632 S   0  0  0  0  0  0  0  0  0  0  0  0
    3.7725    0.8416   -6.3646 C   0  0  0  0  0  0  0  0  0  0  0  0
    1.4966    0.2946   -7.5912 O   0  0  0  0  0  0  0  0  0  0  0  0
    1.5413    0.1406   -5.1200 O   0  0  0  0  0  0  0  0  0  0  0  0
    2.7317   -1.5953   -6.5285 O   0  0  0  0  0  0  0  0  0  0  0  0
    4.4635    0.6802   -7.4953 F   0  0  0  0  0  0  0  0  0  0  0  0
    3.4217    2.1383   -6.2583 F   0  0  0  0  0  0  0  0  0  0  0  0
    4.5541    0.5286   -5.3270 F   0  0  0  0  0  0  0  0  0  0  0  0
  1  6  2  0  0  0  0
  2  3  2  0  0  0  0
  2  1  1  0  0  0  0
  3  4  1  0  0  0  0
  4  9  1  0  0  0  0
  4  5  2  0  0  0  0
  5 10  1  0  0  0  0
  6  5  1  0  0  0  0
  6 11  1  0  0  0  0
  7  1  1  0  0  0  0
  8  2  1  0  0  0  0
 11 12  2  0  0  0  0
 13 11  2  0  0  0  0
 14  3  1  0  0  0  0
 15 14  1  0  0  0  0
 16 19  1  0  0  0  0
 17 16  1  0  0  0  0
 17 22  1  0  0  0  0
 17 23  1  0  0  0  0
 18 16  2  0  0  0  0
 20 16  2  0  0  0  0
 21 17  1  0  0  0  0
M  RAD  3  14   2  15   3  19   2
M  END
