Coordinates from ORCA-job p-NO2-Ph-N2-X-OTf-B3LYPG-6-31G_dp-scan-d09-49-n400
 OpenBabel08281820573D

 23 22  0  0  0  0  0  0  0  0999 V2000
   -2.2497   -0.7122   -5.5136 C   0  0  0  0  0  0  0  0  0  0  0  0
   -1.2779    0.1235   -6.0526 C   0  0  0  0  0  0  0  0  0  0  0  0
   -1.3116    1.4772   -5.6822 C   0  0  0  0  0  0  0  0  0  0  0  0
   -2.2637    2.0179   -4.8091 C   0  0  0  0  0  0  0  0  0  0  0  0
   -3.2212    1.1675   -4.2721 C   0  0  0  0  0  0  0  0  0  0  0  0
   -3.1943   -0.1772   -4.6396 C   0  0  0  0  0  0  0  0  0  0  0  0
   -2.2769   -1.7671   -5.7560 H   0  0  0  0  0  0  0  0  0  0  0  0
   -0.5116   -0.2460   -6.7245 H   0  0  0  0  0  0  0  0  0  0  0  0
   -2.2391    3.0719   -4.5578 H   0  0  0  0  0  0  0  0  0  0  0  0
   -3.9797    1.5209   -3.5854 H   0  0  0  0  0  0  0  0  0  0  0  0
   -4.2257   -1.0802   -4.0717 N   0  0  0  0  0  0  0  0  0  0  0  0
   -5.0347   -0.5836   -3.2939 O   0  0  0  0  0  0  0  0  0  0  0  0
   -4.1961   -2.2541   -4.4236 O   0  0  0  0  0  0  0  0  0  0  0  0
   -0.3580    2.3535   -6.2114 N   0  0  0  0  0  0  0  0  0  0  0  0
    0.5912    2.6123   -6.7762 N   0  0  0  0  0  0  0  0  0  0  0  0
    2.1620    0.1116   -6.2685 S   0  0  0  0  0  0  0  0  0  0  0  0
    3.9542    0.4390   -6.6301 C   0  0  0  0  0  0  0  0  0  0  0  0
    1.4580    0.8200   -7.4315 O   0  0  0  0  0  0  0  0  0  0  0  0
    1.8832    0.7810   -4.9850 O   0  0  0  0  0  0  0  0  0  0  0  0
    1.9868   -1.3427   -6.3455 O   0  0  0  0  0  0  0  0  0  0  0  0
    4.2935   -0.0892   -7.8090 F   0  0  0  0  0  0  0  0  0  0  0  0
    4.1759    1.7597   -6.6655 F   0  0  0  0  0  0  0  0  0  0  0  0
    4.7146   -0.1026   -5.6736 F   0  0  0  0  0  0  0  0  0  0  0  0
  1  6  2  0  0  0  0
  2  3  2  0  0  0  0
  2  1  1  0  0  0  0
  3  4  1  0  0  0  0
  4  9  1  0  0  0  0
  4  5  2  0  0  0  0
  5 10  1  0  0  0  0
  6  5  1  0  0  0  0
  6 11  1  0  0  0  0
  7  1  1  0  0  0  0
  8  2  1  0  0  0  0
 11 12  2  0  0  0  0
 13 11  2  0  0  0  0
 14  3  1  0  0  0  0
 15 14  2  0  0  0  0
 16 19  1  0  0  0  0
 17 16  1  0  0  0  0
 17 23  1  0  0  0  0
 18 16  2  0  0  0  0
 20 16  2  0  0  0  0
 21 17  1  0  0  0  0
 22 17  1  0  0  0  0
M  RAD  2  15   2  19   2
M  END
