Coordinates from ORCA-job p-NO2-Ph-N2-X-OTf-B3LYPG-6-31G_dp-scan-d09-49-n400
 OpenBabel08281820583D

 23 22  0  0  0  0  0  0  0  0999 V2000
   -2.5116   -0.7029   -5.6648 C   0  0  0  0  0  0  0  0  0  0  0  0
   -1.4985    0.0055   -6.2978 C   0  0  0  0  0  0  0  0  0  0  0  0
   -1.2292    1.3030   -5.8384 C   0  0  0  0  0  0  0  0  0  0  0  0
   -1.9244    1.9157   -4.7906 C   0  0  0  0  0  0  0  0  0  0  0  0
   -2.9211    1.1864   -4.1541 C   0  0  0  0  0  0  0  0  0  0  0  0
   -3.1958   -0.1024   -4.6082 C   0  0  0  0  0  0  0  0  0  0  0  0
   -2.7695   -1.7094   -5.9674 H   0  0  0  0  0  0  0  0  0  0  0  0
   -0.9201   -0.4114   -7.1127 H   0  0  0  0  0  0  0  0  0  0  0  0
   -1.6761    2.9239   -4.4816 H   0  0  0  0  0  0  0  0  0  0  0  0
   -3.4873    1.5954   -3.3274 H   0  0  0  0  0  0  0  0  0  0  0  0
   -4.2742   -0.8687   -3.9383 N   0  0  0  0  0  0  0  0  0  0  0  0
   -4.8544   -0.3195   -3.0069 O   0  0  0  0  0  0  0  0  0  0  0  0
   -4.5101   -1.9929   -4.3680 O   0  0  0  0  0  0  0  0  0  0  0  0
   -0.2410    2.0420   -6.4922 N   0  0  0  0  0  0  0  0  0  0  0  0
    0.6751    2.1978   -7.1393 N   0  0  0  0  0  0  0  0  0  0  0  0
    2.2521   -0.2254   -6.3610 S   0  0  0  0  0  0  0  0  0  0  0  0
    3.7669    0.8511   -6.3530 C   0  0  0  0  0  0  0  0  0  0  0  0
    1.5049    0.2842   -7.5961 O   0  0  0  0  0  0  0  0  0  0  0  0
    1.5312    0.1382   -5.1243 O   0  0  0  0  0  0  0  0  0  0  0  0
    2.7458   -1.5935   -6.5173 O   0  0  0  0  0  0  0  0  0  0  0  0
    4.4675    0.6930   -7.4783 F   0  0  0  0  0  0  0  0  0  0  0  0
    3.4062    2.1456   -6.2514 F   0  0  0  0  0  0  0  0  0  0  0  0
    4.5431    0.5456   -5.3090 F   0  0  0  0  0  0  0  0  0  0  0  0
  1  6  2  0  0  0  0
  2  3  2  0  0  0  0
  2  1  1  0  0  0  0
  3  4  1  0  0  0  0
  4  9  1  0  0  0  0
  4  5  2  0  0  0  0
  5 10  1  0  0  0  0
  6  5  1  0  0  0  0
  6 11  1  0  0  0  0
  7  1  1  0  0  0  0
  8  2  1  0  0  0  0
 11 12  2  0  0  0  0
 13 11  2  0  0  0  0
 14  3  1  0  0  0  0
 15 14  1  0  0  0  0
 16 17  1  0  0  0  0
 16 19  1  0  0  0  0
 17 22  1  0  0  0  0
 17 23  1  0  0  0  0
 18 16  2  0  0  0  0
 20 16  2  0  0  0  0
 21 17  1  0  0  0  0
M  RAD  3  14   2  15   3  19   2
M  END
