Coordinates from ORCA-job p-NO2-Ph-N2-X-OTf-B3LYPG-6-31G_dp-scan-d09-49-n400
 OpenBabel08281820573D

 23 22  0  0  0  0  0  0  0  0999 V2000
   -1.8508   -0.6785   -5.0324 C   0  0  0  0  0  0  0  0  0  0  0  0
   -0.8518    0.2926   -5.1336 C   0  0  0  0  0  0  0  0  0  0  0  0
   -1.2909    1.6223   -5.0647 C   0  0  0  0  0  0  0  0  0  0  0  0
   -2.6242    2.0347   -4.8948 C   0  0  0  0  0  0  0  0  0  0  0  0
   -3.5879    1.0449   -4.8024 C   0  0  0  0  0  0  0  0  0  0  0  0
   -3.1773   -0.2904   -4.8727 C   0  0  0  0  0  0  0  0  0  0  0  0
   -1.6020   -1.7322   -5.0764 H   0  0  0  0  0  0  0  0  0  0  0  0
    0.2523    0.0351   -5.2502 H   0  0  0  0  0  0  0  0  0  0  0  0
   -2.8833    3.0864   -4.8463 H   0  0  0  0  0  0  0  0  0  0  0  0
   -4.6370    1.2778   -4.6752 H   0  0  0  0  0  0  0  0  0  0  0  0
   -4.2202   -1.3433   -4.7648 N   0  0  0  0  0  0  0  0  0  0  0  0
   -5.3800   -0.9665   -4.6226 O   0  0  0  0  0  0  0  0  0  0  0  0
   -3.8472   -2.5088   -4.8252 O   0  0  0  0  0  0  0  0  0  0  0  0
   -0.3150    2.6150   -5.1647 N   0  0  0  0  0  0  0  0  0  0  0  0
    0.6124    3.2145   -5.3534 N   0  0  0  0  0  0  0  0  0  0  0  0
    2.6396    0.7513   -5.9832 S   0  0  0  0  0  0  0  0  0  0  0  0
    3.4354   -0.1594   -7.3949 C   0  0  0  0  0  0  0  0  0  0  0  0
    1.8334    1.8056   -6.6888 O   0  0  0  0  0  0  0  0  0  0  0  0
    3.7336    1.2378   -5.1411 O   0  0  0  0  0  0  0  0  0  0  0  0
    1.7471   -0.2802   -5.3598 O   0  0  0  0  0  0  0  0  0  0  0  0
    2.4972   -0.6567   -8.2131 F   0  0  0  0  0  0  0  0  0  0  0  0
    4.2202    0.6682   -8.0920 F   0  0  0  0  0  0  0  0  0  0  0  0
    4.1757   -1.1690   -6.9258 F   0  0  0  0  0  0  0  0  0  0  0  0
  1  6  2  0  0  0  0
  2  3  2  0  0  0  0
  2  1  1  0  0  0  0
  3  4  1  0  0  0  0
  4  9  1  0  0  0  0
  4  5  2  0  0  0  0
  5 10  1  0  0  0  0
  6  5  1  0  0  0  0
  6 11  1  0  0  0  0
  7  1  1  0  0  0  0
  8  2  1  0  0  0  0
 11 12  2  0  0  0  0
 13 11  2  0  0  0  0
 14  3  1  0  0  0  0
 15 14  1  0  0  0  0
 16 20  2  0  0  0  0
 16 19  1  0  0  0  0
 17 23  1  0  0  0  0
 17 16  1  0  0  0  0
 18 16  2  0  0  0  0
 21 17  1  0  0  0  0
 22 17  1  0  0  0  0
M  RAD  3  14   2  15   3  19   2
M  END
