Coordinates from ORCA-job p-NO2-Ph-N2-X-OTf-B3LYPG-6-31G_dp-scan-d09-49-n400
 OpenBabel08281820573D

 23 22  0  0  0  0  0  0  0  0999 V2000
   -1.6503   -0.5854   -4.9790 C   0  0  0  0  0  0  0  0  0  0  0  0
   -0.6765    0.4370   -4.9866 C   0  0  0  0  0  0  0  0  0  0  0  0
   -1.2513    1.7158   -4.9796 C   0  0  0  0  0  0  0  0  0  0  0  0
   -2.6238    2.0631   -4.9649 C   0  0  0  0  0  0  0  0  0  0  0  0
   -3.5207    1.0163   -4.9582 C   0  0  0  0  0  0  0  0  0  0  0  0
   -3.0069   -0.2912   -4.9640 C   0  0  0  0  0  0  0  0  0  0  0  0
   -1.3480   -1.6274   -4.9857 H   0  0  0  0  0  0  0  0  0  0  0  0
    0.7420    0.1341   -5.0414 H   0  0  0  0  0  0  0  0  0  0  0  0
   -2.9532    3.0970   -4.9622 H   0  0  0  0  0  0  0  0  0  0  0  0
   -4.5911    1.1748   -4.9487 H   0  0  0  0  0  0  0  0  0  0  0  0
   -3.9872   -1.4097   -4.9534 N   0  0  0  0  0  0  0  0  0  0  0  0
   -5.1789   -1.1096   -4.9455 O   0  0  0  0  0  0  0  0  0  0  0  0
   -3.5408   -2.5510   -4.9531 O   0  0  0  0  0  0  0  0  0  0  0  0
   -0.3555    2.7859   -4.9768 N   0  0  0  0  0  0  0  0  0  0  0  0
    0.3901    3.6120   -4.9774 N   0  0  0  0  0  0  0  0  0  0  0  0
    2.7291    0.7362   -5.9183 S   0  0  0  0  0  0  0  0  0  0  0  0
    2.9275   -0.2978   -7.4493 C   0  0  0  0  0  0  0  0  0  0  0  0
    1.9946    1.9362   -6.3564 O   0  0  0  0  0  0  0  0  0  0  0  0
    4.0559    0.8756   -5.3360 O   0  0  0  0  0  0  0  0  0  0  0  0
    1.8092   -0.1723   -5.0630 O   0  0  0  0  0  0  0  0  0  0  0  0
    1.7230   -0.5627   -7.9744 F   0  0  0  0  0  0  0  0  0  0  0  0
    3.6550    0.3719   -8.3470 F   0  0  0  0  0  0  0  0  0  0  0  0
    3.5370   -1.4476   -7.1573 F   0  0  0  0  0  0  0  0  0  0  0  0
  1  6  2  0  0  0  0
  2  3  2  0  0  0  0
  2  1  1  0  0  0  0
  3 14  1  0  0  0  0
  3  4  1  0  0  0  0
  4  9  1  0  0  0  0
  4  5  2  0  0  0  0
  5 10  1  0  0  0  0
  6  5  1  0  0  0  0
  6 11  1  0  0  0  0
  7  1  1  0  0  0  0
 11 13  2  0  0  0  0
 11 12  2  0  0  0  0
 15 14  1  0  0  0  0
 16 19  2  0  0  0  0
 16 20  1  0  0  0  0
 17 23  1  0  0  0  0
 17 16  1  0  0  0  0
 18 16  2  0  0  0  0
 20  8  1  0  0  0  0
 21 17  1  0  0  0  0
 22 17  1  0  0  0  0
M  RAD  3   2   2  14   2  15   3
M  END
