Coordinates from ORCA-job p-NO2-Ph-N2-X-OTf-B3LYPG-6-31G_dp-scan-d09-49-n400
 OpenBabel08281820573D

 23 22  0  0  0  0  0  0  0  0999 V2000
   -2.0553   -0.7319   -5.0702 C   0  0  0  0  0  0  0  0  0  0  0  0
   -1.0103    0.1599   -5.2983 C   0  0  0  0  0  0  0  0  0  0  0  0
   -1.3102    1.5277   -5.2049 C   0  0  0  0  0  0  0  0  0  0  0  0
   -2.5805    2.0298   -4.8871 C   0  0  0  0  0  0  0  0  0  0  0  0
   -3.6097    1.1237   -4.6758 C   0  0  0  0  0  0  0  0  0  0  0  0
   -3.3230   -0.2383   -4.7713 C   0  0  0  0  0  0  0  0  0  0  0  0
   -1.8921   -1.8014   -5.1235 H   0  0  0  0  0  0  0  0  0  0  0  0
   -0.0047   -0.1954   -5.5241 H   0  0  0  0  0  0  0  0  0  0  0  0
   -2.7463    3.0991   -4.8183 H   0  0  0  0  0  0  0  0  0  0  0  0
   -4.6145    1.4456   -4.4353 H   0  0  0  0  0  0  0  0  0  0  0  0
   -4.4246   -1.2045   -4.5364 N   0  0  0  0  0  0  0  0  0  0  0  0
   -5.5294   -0.7377   -4.2747 O   0  0  0  0  0  0  0  0  0  0  0  0
   -4.1505   -2.3963   -4.6181 O   0  0  0  0  0  0  0  0  0  0  0  0
   -0.2916    2.4665   -5.4157 N   0  0  0  0  0  0  0  0  0  0  0  0
    0.7100    2.8472   -5.7831 N   0  0  0  0  0  0  0  0  0  0  0  0
    2.5323    0.5108   -6.0705 S   0  0  0  0  0  0  0  0  0  0  0  0
    3.8805    0.1165   -7.2893 C   0  0  0  0  0  0  0  0  0  0  0  0
    1.5415    1.2857   -6.9348 O   0  0  0  0  0  0  0  0  0  0  0  0
    3.1463    1.3359   -5.0220 O   0  0  0  0  0  0  0  0  0  0  0  0
    1.9736   -0.7977   -5.6687 O   0  0  0  0  0  0  0  0  0  0  0  0
    3.3886   -0.5955   -8.3087 F   0  0  0  0  0  0  0  0  0  0  0  0
    4.4134    1.2460   -7.7655 F   0  0  0  0  0  0  0  0  0  0  0  0
    4.8357   -0.5946   -6.6818 F   0  0  0  0  0  0  0  0  0  0  0  0
  1  6  2  0  0  0  0
  2  3  2  0  0  0  0
  2  1  1  0  0  0  0
  3  4  1  0  0  0  0
  4  9  1  0  0  0  0
  4  5  2  0  0  0  0
  5 10  1  0  0  0  0
  6  5  1  0  0  0  0
  6 11  1  0  0  0  0
  7  1  1  0  0  0  0
  8  2  1  0  0  0  0
 11 12  2  0  0  0  0
 13 11  2  0  0  0  0
 14  3  1  0  0  0  0
 15 14  1  0  0  0  0
 16 20  2  0  0  0  0
 16 19  1  0  0  0  0
 17 23  1  0  0  0  0
 17 16  1  0  0  0  0
 18 16  2  0  0  0  0
 21 17  1  0  0  0  0
 22 17  1  0  0  0  0
M  RAD  3  14   2  15   3  19   2
M  END
