Coordinates from ORCA-job p-NO2-Ph-N2-X-OTf-B3LYPG-6-31G_dp-scan-d09-49-n400
 OpenBabel08281820573D

 23 22  0  0  0  0  0  0  0  0999 V2000
   -2.4054   -0.7154   -5.5718 C   0  0  0  0  0  0  0  0  0  0  0  0
   -1.3805    0.0323   -6.1386 C   0  0  0  0  0  0  0  0  0  0  0  0
   -1.2452    1.3659   -5.7239 C   0  0  0  0  0  0  0  0  0  0  0  0
   -2.0812    1.9725   -4.7797 C   0  0  0  0  0  0  0  0  0  0  0  0
   -3.0910    1.2071   -4.2101 C   0  0  0  0  0  0  0  0  0  0  0  0
   -3.2329   -0.1170   -4.6224 C   0  0  0  0  0  0  0  0  0  0  0  0
   -2.5653   -1.7501   -5.8466 H   0  0  0  0  0  0  0  0  0  0  0  0
   -0.6944   -0.3766   -6.8711 H   0  0  0  0  0  0  0  0  0  0  0  0
   -1.9303    3.0082   -4.4992 H   0  0  0  0  0  0  0  0  0  0  0  0
   -3.7653    1.6127   -3.4668 H   0  0  0  0  0  0  0  0  0  0  0  0
   -4.3227   -0.9260   -4.0238 N   0  0  0  0  0  0  0  0  0  0  0  0
   -5.0282   -0.3777   -3.1827 O   0  0  0  0  0  0  0  0  0  0  0  0
   -4.4409   -2.0817   -4.4164 O   0  0  0  0  0  0  0  0  0  0  0  0
   -0.2413    2.1503   -6.3012 N   0  0  0  0  0  0  0  0  0  0  0  0
    0.7043    2.3023   -6.9107 N   0  0  0  0  0  0  0  0  0  0  0  0
    2.2525   -0.1657   -6.3338 S   0  0  0  0  0  0  0  0  0  0  0  0
    3.8641    0.7390   -6.5233 C   0  0  0  0  0  0  0  0  0  0  0  0
    1.4282    0.4154   -7.4918 O   0  0  0  0  0  0  0  0  0  0  0  0
    1.7154    0.2759   -5.0337 O   0  0  0  0  0  0  0  0  0  0  0  0
    2.5594   -1.5821   -6.5319 O   0  0  0  0  0  0  0  0  0  0  0  0
    4.4233    0.4618   -7.7035 F   0  0  0  0  0  0  0  0  0  0  0  0
    3.6515    2.0647   -6.4478 F   0  0  0  0  0  0  0  0  0  0  0  0
    4.7053    0.3852   -5.5473 F   0  0  0  0  0  0  0  0  0  0  0  0
  1  6  2  0  0  0  0
  2  3  2  0  0  0  0
  2  1  1  0  0  0  0
  3  4  1  0  0  0  0
  4  9  1  0  0  0  0
  4  5  2  0  0  0  0
  5 10  1  0  0  0  0
  6  5  1  0  0  0  0
  6 11  1  0  0  0  0
  7  1  1  0  0  0  0
  8  2  1  0  0  0  0
 11 12  2  0  0  0  0
 13 11  2  0  0  0  0
 14  3  1  0  0  0  0
 15 14  2  0  0  0  0
 16 19  1  0  0  0  0
 17 22  1  0  0  0  0
 17 16  1  0  0  0  0
 17 23  1  0  0  0  0
 18 16  2  0  0  0  0
 20 16  2  0  0  0  0
 21 17  1  0  0  0  0
M  RAD  2  15   2  19   2
M  END
