Coordinates from ORCA-job p-NO2-Ph-N2-X-OTf-B3LYPG-6-31G_dp-scan-d09-49-n400
 OpenBabel08281820573D

 23 22  0  0  0  0  0  0  0  0999 V2000
   -2.3945   -0.7163   -5.5620 C   0  0  0  0  0  0  0  0  0  0  0  0
   -1.3690    0.0364   -6.1214 C   0  0  0  0  0  0  0  0  0  0  0  0
   -1.2482    1.3731   -5.7116 C   0  0  0  0  0  0  0  0  0  0  0  0
   -2.0989    1.9774   -4.7791 C   0  0  0  0  0  0  0  0  0  0  0  0
   -3.1096    1.2074   -4.2175 C   0  0  0  0  0  0  0  0  0  0  0  0
   -3.2370   -0.1195   -4.6250 C   0  0  0  0  0  0  0  0  0  0  0  0
   -2.5436   -1.7534   -5.8337 H   0  0  0  0  0  0  0  0  0  0  0  0
   -0.6722   -0.3709   -6.8447 H   0  0  0  0  0  0  0  0  0  0  0  0
   -1.9584    3.0154   -4.5015 H   0  0  0  0  0  0  0  0  0  0  0  0
   -3.7952    1.6116   -3.4837 H   0  0  0  0  0  0  0  0  0  0  0  0
   -4.3276   -0.9338   -4.0347 N   0  0  0  0  0  0  0  0  0  0  0  0
   -5.0454   -0.3873   -3.2030 O   0  0  0  0  0  0  0  0  0  0  0  0
   -4.4299   -2.0936   -4.4195 O   0  0  0  0  0  0  0  0  0  0  0  0
   -0.2431    2.1632   -6.2796 N   0  0  0  0  0  0  0  0  0  0  0  0
    0.7060    2.3171   -6.8837 N   0  0  0  0  0  0  0  0  0  0  0  0
    2.2524   -0.1533   -6.3284 S   0  0  0  0  0  0  0  0  0  0  0  0
    3.8764    0.7233   -6.5432 C   0  0  0  0  0  0  0  0  0  0  0  0
    1.4231    0.4362   -7.4786 O   0  0  0  0  0  0  0  0  0  0  0  0
    1.7387    0.3014   -5.0236 O   0  0  0  0  0  0  0  0  0  0  0  0
    2.5303   -1.5756   -6.5259 O   0  0  0  0  0  0  0  0  0  0  0  0
    4.4157    0.4285   -7.7283 F   0  0  0  0  0  0  0  0  0  0  0  0
    3.6862    2.0523   -6.4742 F   0  0  0  0  0  0  0  0  0  0  0  0
    4.7233    0.3615   -5.5752 F   0  0  0  0  0  0  0  0  0  0  0  0
  1  6  2  0  0  0  0
  2  3  2  0  0  0  0
  2  1  1  0  0  0  0
  3  4  1  0  0  0  0
  4  9  1  0  0  0  0
  4  5  2  0  0  0  0
  5 10  1  0  0  0  0
  6  5  1  0  0  0  0
  6 11  1  0  0  0  0
  7  1  1  0  0  0  0
  8  2  1  0  0  0  0
 11 12  2  0  0  0  0
 13 11  2  0  0  0  0
 14  3  1  0  0  0  0
 15 14  2  0  0  0  0
 16 19  1  0  0  0  0
 17 22  1  0  0  0  0
 17 16  1  0  0  0  0
 17 23  1  0  0  0  0
 18 16  2  0  0  0  0
 20 16  2  0  0  0  0
 21 17  1  0  0  0  0
M  RAD  2  15   2  19   2
M  END
