Coordinates from ORCA-job p-NO2-Ph-N2-X-OTf-B3LYPG-6-31G_dp-scan-d09-49-n400
 OpenBabel08281820583D

 23 22  0  0  0  0  0  0  0  0999 V2000
   -2.5909   -0.6894   -5.7267 C   0  0  0  0  0  0  0  0  0  0  0  0
   -1.5873   -0.0003   -6.3946 C   0  0  0  0  0  0  0  0  0  0  0  0
   -1.2297    1.2637   -5.9033 C   0  0  0  0  0  0  0  0  0  0  0  0
   -1.8319    1.8640   -4.7927 C   0  0  0  0  0  0  0  0  0  0  0  0
   -2.8192    1.1523   -4.1229 C   0  0  0  0  0  0  0  0  0  0  0  0
   -3.1809   -0.1038   -4.6066 C   0  0  0  0  0  0  0  0  0  0  0  0
   -2.9125   -1.6707   -6.0504 H   0  0  0  0  0  0  0  0  0  0  0  0
   -1.0829   -0.4116   -7.2596 H   0  0  0  0  0  0  0  0  0  0  0  0
   -1.5190    2.8465   -4.4610 H   0  0  0  0  0  0  0  0  0  0  0  0
   -3.3133    1.5513   -3.2468 H   0  0  0  0  0  0  0  0  0  0  0  0
   -4.2498   -0.8487   -3.9003 N   0  0  0  0  0  0  0  0  0  0  0  0
   -4.7456   -0.3135   -2.9136 O   0  0  0  0  0  0  0  0  0  0  0  0
   -4.5637   -1.9429   -4.3572 O   0  0  0  0  0  0  0  0  0  0  0  0
   -0.2521    1.9813   -6.5931 N   0  0  0  0  0  0  0  0  0  0  0  0
    0.6517    2.1471   -7.2521 N   0  0  0  0  0  0  0  0  0  0  0  0
    2.2557   -0.2202   -6.3391 S   0  0  0  0  0  0  0  0  0  0  0  0
    3.7349    0.9029   -6.2799 C   0  0  0  0  0  0  0  0  0  0  0  0
    1.5595    0.2342   -7.6211 O   0  0  0  0  0  0  0  0  0  0  0  0
    1.4636    0.1547   -5.1486 O   0  0  0  0  0  0  0  0  0  0  0  0
    2.7999   -1.5751   -6.4266 O   0  0  0  0  0  0  0  0  0  0  0  0
    4.5038    0.7359   -7.3581 F   0  0  0  0  0  0  0  0  0  0  0  0
    3.3295    2.1886   -6.2389 F   0  0  0  0  0  0  0  0  0  0  0  0
    4.4594    0.6547   -5.1847 F   0  0  0  0  0  0  0  0  0  0  0  0
  1  6  2  0  0  0  0
  2  3  2  0  0  0  0
  2  1  1  0  0  0  0
  3  4  1  0  0  0  0
  4  9  1  0  0  0  0
  4  5  2  0  0  0  0
  5 10  1  0  0  0  0
  6  5  1  0  0  0  0
  6 11  1  0  0  0  0
  7  1  1  0  0  0  0
  8  2  1  0  0  0  0
 11 12  2  0  0  0  0
 13 11  2  0  0  0  0
 14  3  1  0  0  0  0
 15 14  1  0  0  0  0
 16 17  1  0  0  0  0
 16 19  1  0  0  0  0
 17 22  1  0  0  0  0
 17 23  1  0  0  0  0
 18 16  2  0  0  0  0
 20 16  2  0  0  0  0
 21 17  1  0  0  0  0
M  RAD  3  14   2  15   3  19   2
M  END
