Coordinates from ORCA-job p-NO2-Ph-N2-X-OTf-B3LYPG-6-31G_dp-scan-d09-49-n400
 OpenBabel08281820583D

 23 22  0  0  0  0  0  0  0  0999 V2000
   -2.5179   -0.7020   -5.6698 C   0  0  0  0  0  0  0  0  0  0  0  0
   -1.5053    0.0046   -6.3055 C   0  0  0  0  0  0  0  0  0  0  0  0
   -1.2290    1.2997   -5.8434 C   0  0  0  0  0  0  0  0  0  0  0  0
   -1.9170    1.9118   -4.7905 C   0  0  0  0  0  0  0  0  0  0  0  0
   -2.9132    1.1841   -4.1514 C   0  0  0  0  0  0  0  0  0  0  0  0
   -3.1949   -0.1023   -4.6080 C   0  0  0  0  0  0  0  0  0  0  0  0
   -2.7809   -1.7067   -5.9741 H   0  0  0  0  0  0  0  0  0  0  0  0
   -0.9327   -0.4121   -7.1244 H   0  0  0  0  0  0  0  0  0  0  0  0
   -1.6636    2.9182   -4.4796 H   0  0  0  0  0  0  0  0  0  0  0  0
   -3.4738    1.5927   -3.3207 H   0  0  0  0  0  0  0  0  0  0  0  0
   -4.2728   -0.8666   -3.9354 N   0  0  0  0  0  0  0  0  0  0  0  0
   -4.8468   -0.3180   -2.9997 O   0  0  0  0  0  0  0  0  0  0  0  0
   -4.5145   -1.9889   -4.3669 O   0  0  0  0  0  0  0  0  0  0  0  0
   -0.2415    2.0368   -6.5001 N   0  0  0  0  0  0  0  0  0  0  0  0
    0.6735    2.1931   -7.1484 N   0  0  0  0  0  0  0  0  0  0  0  0
    2.2529   -0.2258   -6.3596 S   0  0  0  0  0  0  0  0  0  0  0  0
    3.7641    0.8557   -6.3471 C   0  0  0  0  0  0  0  0  0  0  0  0
    1.5091    0.2792   -7.5984 O   0  0  0  0  0  0  0  0  0  0  0  0
    1.5259    0.1378   -5.1264 O   0  0  0  0  0  0  0  0  0  0  0  0
    2.7521   -1.5923   -6.5111 O   0  0  0  0  0  0  0  0  0  0  0  0
    4.4697    0.6987   -7.4693 F   0  0  0  0  0  0  0  0  0  0  0  0
    3.3988    2.1493   -6.2485 F   0  0  0  0  0  0  0  0  0  0  0  0
    4.5372    0.5542   -5.2997 F   0  0  0  0  0  0  0  0  0  0  0  0
  1  6  2  0  0  0  0
  2  3  2  0  0  0  0
  2  1  1  0  0  0  0
  3  4  1  0  0  0  0
  4  9  1  0  0  0  0
  4  5  2  0  0  0  0
  5 10  1  0  0  0  0
  6  5  1  0  0  0  0
  6 11  1  0  0  0  0
  7  1  1  0  0  0  0
  8  2  1  0  0  0  0
 11 12  2  0  0  0  0
 13 11  2  0  0  0  0
 14  3  1  0  0  0  0
 15 14  1  0  0  0  0
 16 17  1  0  0  0  0
 16 19  1  0  0  0  0
 17 22  1  0  0  0  0
 17 23  1  0  0  0  0
 18 16  2  0  0  0  0
 20 16  2  0  0  0  0
 21 17  1  0  0  0  0
M  RAD  3  14   2  15   3  19   2
M  END
