Coordinates from ORCA-job p-NO2-Ph-N2-X-OTf-B3LYPG-6-31G_dp-scan-d09-49-n400
 OpenBabel08281820573D

 23 22  0  0  0  0  0  0  0  0999 V2000
   -2.4120   -0.7146   -5.5788 C   0  0  0  0  0  0  0  0  0  0  0  0
   -1.3880    0.0302   -6.1510 C   0  0  0  0  0  0  0  0  0  0  0  0
   -1.2434    1.3618   -5.7332 C   0  0  0  0  0  0  0  0  0  0  0  0
   -2.0694    1.9695   -4.7810 C   0  0  0  0  0  0  0  0  0  0  0  0
   -3.0780    1.2067   -4.2057 C   0  0  0  0  0  0  0  0  0  0  0  0
   -3.2291   -0.1153   -4.6210 C   0  0  0  0  0  0  0  0  0  0  0  0
   -2.5789   -1.7476   -5.8554 H   0  0  0  0  0  0  0  0  0  0  0  0
   -0.7094   -0.3797   -6.8898 H   0  0  0  0  0  0  0  0  0  0  0  0
   -1.9116    3.0037   -4.4987 H   0  0  0  0  0  0  0  0  0  0  0  0
   -3.7444    1.6131   -3.4558 H   0  0  0  0  0  0  0  0  0  0  0  0
   -4.3179   -0.9213   -4.0163 N   0  0  0  0  0  0  0  0  0  0  0  0
   -5.0136   -0.3728   -3.1671 O   0  0  0  0  0  0  0  0  0  0  0  0
   -4.4451   -2.0748   -4.4123 O   0  0  0  0  0  0  0  0  0  0  0  0
   -0.2407    2.1426   -6.3170 N   0  0  0  0  0  0  0  0  0  0  0  0
    0.7024    2.2939   -6.9300 N   0  0  0  0  0  0  0  0  0  0  0  0
    2.2508   -0.1730   -6.3380 S   0  0  0  0  0  0  0  0  0  0  0  0
    3.8551    0.7483   -6.5083 C   0  0  0  0  0  0  0  0  0  0  0  0
    1.4322    0.4035   -7.5019 O   0  0  0  0  0  0  0  0  0  0  0  0
    1.6971    0.2599   -5.0418 O   0  0  0  0  0  0  0  0  0  0  0  0
    2.5750   -1.5855   -6.5363 O   0  0  0  0  0  0  0  0  0  0  0  0
    4.4283    0.4829   -7.6845 F   0  0  0  0  0  0  0  0  0  0  0  0
    3.6290    2.0717   -6.4281 F   0  0  0  0  0  0  0  0  0  0  0  0
    4.6908    0.3980   -5.5262 F   0  0  0  0  0  0  0  0  0  0  0  0
  1  6  2  0  0  0  0
  2  3  2  0  0  0  0
  2  1  1  0  0  0  0
  3  4  1  0  0  0  0
  4  9  1  0  0  0  0
  4  5  2  0  0  0  0
  5 10  1  0  0  0  0
  6  5  1  0  0  0  0
  6 11  1  0  0  0  0
  7  1  1  0  0  0  0
  8  2  1  0  0  0  0
 11 12  2  0  0  0  0
 13 11  2  0  0  0  0
 14  3  1  0  0  0  0
 15 14  2  0  0  0  0
 16 19  1  0  0  0  0
 17 22  1  0  0  0  0
 17 16  1  0  0  0  0
 17 23  1  0  0  0  0
 18 16  2  0  0  0  0
 20 16  2  0  0  0  0
 21 17  1  0  0  0  0
M  RAD  2  15   2  19   2
M  END
