Coordinates from ORCA-job p-NO2-Ph-N2-X-OTf-B3LYPG-6-31G_dp-scan-d09-49-n400
 OpenBabel08281820573D

 23 22  0  0  0  0  0  0  0  0999 V2000
   -2.3292   -0.7170   -5.5272 C   0  0  0  0  0  0  0  0  0  0  0  0
   -1.3194    0.0676   -6.0718 C   0  0  0  0  0  0  0  0  0  0  0  0
   -1.2681    1.4165   -5.6867 C   0  0  0  0  0  0  0  0  0  0  0  0
   -2.1727    2.0009   -4.7925 C   0  0  0  0  0  0  0  0  0  0  0  0
   -3.1685    1.2004   -4.2473 C   0  0  0  0  0  0  0  0  0  0  0  0
   -3.2258   -0.1388   -4.6299 C   0  0  0  0  0  0  0  0  0  0  0  0
   -2.4244   -1.7650   -5.7812 H   0  0  0  0  0  0  0  0  0  0  0  0
   -0.5859   -0.3269   -6.7659 H   0  0  0  0  0  0  0  0  0  0  0  0
   -2.0839    3.0490   -4.5313 H   0  0  0  0  0  0  0  0  0  0  0  0
   -3.8937    1.5892   -3.5441 H   0  0  0  0  0  0  0  0  0  0  0  0
   -4.2981   -0.9878   -4.0547 N   0  0  0  0  0  0  0  0  0  0  0  0
   -5.0676   -0.4543   -3.2614 O   0  0  0  0  0  0  0  0  0  0  0  0
   -4.3389   -2.1584   -4.4169 O   0  0  0  0  0  0  0  0  0  0  0  0
   -0.2760    2.2414   -6.2287 N   0  0  0  0  0  0  0  0  0  0  0  0
    0.6799    2.4249   -6.8145 N   0  0  0  0  0  0  0  0  0  0  0  0
    2.2142   -0.0721   -6.3137 S   0  0  0  0  0  0  0  0  0  0  0  0
    3.9146    0.6219   -6.5913 C   0  0  0  0  0  0  0  0  0  0  0  0
    1.4172    0.5798   -7.4534 O   0  0  0  0  0  0  0  0  0  0  0  0
    1.7881    0.4514   -5.0035 O   0  0  0  0  0  0  0  0  0  0  0  0
    2.3226   -1.5204   -6.4935 O   0  0  0  0  0  0  0  0  0  0  0  0
    4.3835    0.2474   -7.7838 F   0  0  0  0  0  0  0  0  0  0  0  0
    3.8657    1.9627   -6.5462 F   0  0  0  0  0  0  0  0  0  0  0  0
    4.7455    0.1889   -5.6385 F   0  0  0  0  0  0  0  0  0  0  0  0
  1  6  2  0  0  0  0
  2  3  2  0  0  0  0
  2  1  1  0  0  0  0
  3  4  1  0  0  0  0
  4  9  1  0  0  0  0
  4  5  2  0  0  0  0
  5 10  1  0  0  0  0
  6  5  1  0  0  0  0
  6 11  1  0  0  0  0
  7  1  1  0  0  0  0
  8  2  1  0  0  0  0
 11 12  2  0  0  0  0
 13 11  2  0  0  0  0
 14  3  1  0  0  0  0
 15 14  2  0  0  0  0
 16 19  1  0  0  0  0
 17 22  1  0  0  0  0
 17 16  1  0  0  0  0
 17 23  1  0  0  0  0
 18 16  2  0  0  0  0
 20 16  2  0  0  0  0
 21 17  1  0  0  0  0
M  RAD  2  15   2  19   2
M  END
