Coordinates from ORCA-job p-NO2-Ph-N2-X-OTf-B3LYPG-6-31G_dp-scan-d09-49-n400
 OpenBabel08281820583D

 23 22  0  0  0  0  0  0  0  0999 V2000
   -2.5407   -0.6987   -5.6872 C   0  0  0  0  0  0  0  0  0  0  0  0
   -1.5302    0.0020   -6.3324 C   0  0  0  0  0  0  0  0  0  0  0  0
   -1.2288    1.2881   -5.8610 C   0  0  0  0  0  0  0  0  0  0  0  0
   -1.8912    1.8976   -4.7903 C   0  0  0  0  0  0  0  0  0  0  0  0
   -2.8854    1.1753   -4.1420 C   0  0  0  0  0  0  0  0  0  0  0  0
   -3.1916   -0.1023   -4.6074 C   0  0  0  0  0  0  0  0  0  0  0  0
   -2.8218   -1.6965   -5.9978 H   0  0  0  0  0  0  0  0  0  0  0  0
   -0.9781   -0.4138   -7.1657 H   0  0  0  0  0  0  0  0  0  0  0  0
   -1.6196    2.8970   -4.4728 H   0  0  0  0  0  0  0  0  0  0  0  0
   -3.4262    1.5818   -3.2974 H   0  0  0  0  0  0  0  0  0  0  0  0
   -4.2677   -0.8600   -3.9249 N   0  0  0  0  0  0  0  0  0  0  0  0
   -4.8195   -0.3140   -2.9744 O   0  0  0  0  0  0  0  0  0  0  0  0
   -4.5305   -1.9747   -4.3637 O   0  0  0  0  0  0  0  0  0  0  0  0
   -0.2440    2.0189   -6.5279 N   0  0  0  0  0  0  0  0  0  0  0  0
    0.6677    2.1773   -7.1797 N   0  0  0  0  0  0  0  0  0  0  0  0
    2.2557   -0.2256   -6.3538 S   0  0  0  0  0  0  0  0  0  0  0  0
    3.7555    0.8714   -6.3271 C   0  0  0  0  0  0  0  0  0  0  0  0
    1.5243    0.2634   -7.6056 O   0  0  0  0  0  0  0  0  0  0  0  0
    1.5084    0.1395   -5.1328 O   0  0  0  0  0  0  0  0  0  0  0  0
    2.7721   -1.5877   -6.4872 O   0  0  0  0  0  0  0  0  0  0  0  0
    4.4786    0.7148   -7.4381 F   0  0  0  0  0  0  0  0  0  0  0  0
    3.3754    2.1620   -6.2422 F   0  0  0  0  0  0  0  0  0  0  0  0
    4.5168    0.5851   -5.2668 F   0  0  0  0  0  0  0  0  0  0  0  0
  1  6  2  0  0  0  0
  2  3  2  0  0  0  0
  2  1  1  0  0  0  0
  3  4  1  0  0  0  0
  4  9  1  0  0  0  0
  4  5  2  0  0  0  0
  5 10  1  0  0  0  0
  6  5  1  0  0  0  0
  6 11  1  0  0  0  0
  7  1  1  0  0  0  0
  8  2  1  0  0  0  0
 11 12  2  0  0  0  0
 13 11  2  0  0  0  0
 14  3  1  0  0  0  0
 15 14  1  0  0  0  0
 16 17  1  0  0  0  0
 16 19  1  0  0  0  0
 17 22  1  0  0  0  0
 17 23  1  0  0  0  0
 18 16  2  0  0  0  0
 20 16  2  0  0  0  0
 21 17  1  0  0  0  0
M  RAD  3  14   2  15   3  19   2
M  END
