Coordinates from ORCA-job p-NO2-Ph-N2-X-OTf-B3LYPG-6-31G_dp-scan-d09-49-n400
 OpenBabel08281820583D

 23 22  0  0  0  0  0  0  0  0999 V2000
   -2.4446   -0.7108   -5.6109 C   0  0  0  0  0  0  0  0  0  0  0  0
   -1.4257    0.0202   -6.2087 C   0  0  0  0  0  0  0  0  0  0  0  0
   -1.2361    1.3413   -5.7767 C   0  0  0  0  0  0  0  0  0  0  0  0
   -2.0136    1.9534   -4.7876 C   0  0  0  0  0  0  0  0  0  0  0  0
   -3.0163    1.2031   -4.1859 C   0  0  0  0  0  0  0  0  0  0  0  0
   -3.2121   -0.1087   -4.6144 C   0  0  0  0  0  0  0  0  0  0  0  0
   -2.6445   -1.7356   -5.8959 H   0  0  0  0  0  0  0  0  0  0  0  0
   -0.7835   -0.3937   -6.9767 H   0  0  0  0  0  0  0  0  0  0  0  0
   -1.8233    2.9797   -4.4969 H   0  0  0  0  0  0  0  0  0  0  0  0
   -3.6452    1.6123   -3.4058 H   0  0  0  0  0  0  0  0  0  0  0  0
   -4.2955   -0.8999   -3.9815 N   0  0  0  0  0  0  0  0  0  0  0  0
   -4.9457   -0.3504   -3.0977 O   0  0  0  0  0  0  0  0  0  0  0  0
   -4.4644   -2.0434   -4.3912 O   0  0  0  0  0  0  0  0  0  0  0  0
   -0.2397    2.1057   -6.3903 N   0  0  0  0  0  0  0  0  0  0  0  0
    0.6918    2.2574   -7.0189 N   0  0  0  0  0  0  0  0  0  0  0  0
    2.2450   -0.2014   -6.3560 S   0  0  0  0  0  0  0  0  0  0  0  0
    3.8147    0.7891   -6.4392 C   0  0  0  0  0  0  0  0  0  0  0  0
    1.4564    0.3544   -7.5480 O   0  0  0  0  0  0  0  0  0  0  0  0
    1.6164    0.1938   -5.0809 O   0  0  0  0  0  0  0  0  0  0  0  0
    2.6437   -1.5954   -6.5489 O   0  0  0  0  0  0  0  0  0  0  0  0
    4.4469    0.5777   -7.5960 F   0  0  0  0  0  0  0  0  0  0  0  0
    3.5304    2.1011   -6.3386 F   0  0  0  0  0  0  0  0  0  0  0  0
    4.6243    0.4514   -5.4312 F   0  0  0  0  0  0  0  0  0  0  0  0
  1  6  2  0  0  0  0
  2  3  2  0  0  0  0
  2  1  1  0  0  0  0
  3  4  1  0  0  0  0
  4  9  1  0  0  0  0
  4  5  2  0  0  0  0
  5 10  1  0  0  0  0
  6  5  1  0  0  0  0
  6 11  1  0  0  0  0
  7  1  1  0  0  0  0
  8  2  1  0  0  0  0
 11 12  2  0  0  0  0
 13 11  2  0  0  0  0
 14  3  1  0  0  0  0
 15 14  2  0  0  0  0
 16 19  1  0  0  0  0
 17 16  1  0  0  0  0
 17 22  1  0  0  0  0
 17 23  1  0  0  0  0
 18 16  2  0  0  0  0
 20 16  2  0  0  0  0
 21 17  1  0  0  0  0
M  RAD  2  15   2  19   2
M  END
