Coordinates from ORCA-job p-NO2-Ph-N2-X-OTf-B3LYPG-6-31G_dp-scan-d09-49-n400
 OpenBabel08281820583D

 23 22  0  0  0  0  0  0  0  0999 V2000
   -2.4494   -0.7102   -5.6154 C   0  0  0  0  0  0  0  0  0  0  0  0
   -1.4313    0.0190   -6.2167 C   0  0  0  0  0  0  0  0  0  0  0  0
   -1.2353    1.3384   -5.7827 C   0  0  0  0  0  0  0  0  0  0  0  0
   -2.0059    1.9510   -4.7885 C   0  0  0  0  0  0  0  0  0  0  0  0
   -3.0077    1.2024   -4.1833 C   0  0  0  0  0  0  0  0  0  0  0  0
   -3.2099   -0.1079   -4.6135 C   0  0  0  0  0  0  0  0  0  0  0  0
   -2.6539   -1.7337   -5.9015 H   0  0  0  0  0  0  0  0  0  0  0  0
   -0.7944   -0.3954   -6.9888 H   0  0  0  0  0  0  0  0  0  0  0  0
   -1.8110    2.9760   -4.4966 H   0  0  0  0  0  0  0  0  0  0  0  0
   -3.6314    1.6118   -3.3991 H   0  0  0  0  0  0  0  0  0  0  0  0
   -4.2924   -0.8971   -3.9769 N   0  0  0  0  0  0  0  0  0  0  0  0
   -4.9364   -0.3475   -3.0887 O   0  0  0  0  0  0  0  0  0  0  0  0
   -4.4668   -2.0392   -4.3881 O   0  0  0  0  0  0  0  0  0  0  0  0
   -0.2398    2.1006   -6.4002 N   0  0  0  0  0  0  0  0  0  0  0  0
    0.6901    2.2526   -7.0309 N   0  0  0  0  0  0  0  0  0  0  0  0
    2.2445   -0.2049   -6.3581 S   0  0  0  0  0  0  0  0  0  0  0  0
    3.8092    0.7945   -6.4300 C   0  0  0  0  0  0  0  0  0  0  0  0
    1.4603    0.3481   -7.5540 O   0  0  0  0  0  0  0  0  0  0  0  0
    1.6062    0.1856   -5.0862 O   0  0  0  0  0  0  0  0  0  0  0  0
    2.6530   -1.5963   -6.5494 O   0  0  0  0  0  0  0  0  0  0  0  0
    4.4489    0.5901   -7.5839 F   0  0  0  0  0  0  0  0  0  0  0  0
    3.5172    2.1047   -6.3270 F   0  0  0  0  0  0  0  0  0  0  0  0
    4.6154    0.4584   -5.4186 F   0  0  0  0  0  0  0  0  0  0  0  0
  1  6  2  0  0  0  0
  2  3  2  0  0  0  0
  2  1  1  0  0  0  0
  3  4  1  0  0  0  0
  4  9  1  0  0  0  0
  4  5  2  0  0  0  0
  5 10  1  0  0  0  0
  6  5  1  0  0  0  0
  6 11  1  0  0  0  0
  7  1  1  0  0  0  0
  8  2  1  0  0  0  0
 11 12  2  0  0  0  0
 13 11  2  0  0  0  0
 14  3  1  0  0  0  0
 15 14  2  0  0  0  0
 16 19  1  0  0  0  0
 17 16  1  0  0  0  0
 17 22  1  0  0  0  0
 17 23  1  0  0  0  0
 18 16  2  0  0  0  0
 20 16  2  0  0  0  0
 21 17  1  0  0  0  0
M  RAD  2  15   2  19   2
M  END
