Coordinates from ORCA-job p-NO2-Ph-N2-X-OTf-B3LYPG-6-31G_dp-scan-d09-49-n400
 OpenBabel08281820583D

 23 22  0  0  0  0  0  0  0  0999 V2000
   -2.5828   -0.7714   -5.5594 C   0  0  0  0  0  0  0  0  0  0  0  0
   -1.6711   -0.2785   -6.4830 C   0  0  0  0  0  0  0  0  0  0  0  0
   -1.1325    0.9923   -6.2464 C   0  0  0  0  0  0  0  0  0  0  0  0
   -1.4368    1.7716   -5.1216 C   0  0  0  0  0  0  0  0  0  0  0  0
   -2.3364    1.2522   -4.1993 C   0  0  0  0  0  0  0  0  0  0  0  0
   -2.8973   -0.0002   -4.4407 C   0  0  0  0  0  0  0  0  0  0  0  0
   -3.0374   -1.7458   -5.6823 H   0  0  0  0  0  0  0  0  0  0  0  0
   -1.3495   -0.8540   -7.3405 H   0  0  0  0  0  0  0  0  0  0  0  0
   -0.9695    2.7375   -4.9749 H   0  0  0  0  0  0  0  0  0  0  0  0
   -2.6090    1.7994   -3.3060 H   0  0  0  0  0  0  0  0  0  0  0  0
   -3.8675   -0.5385   -3.4602 N   0  0  0  0  0  0  0  0  0  0  0  0
   -4.1183    0.1580   -2.4812 O   0  0  0  0  0  0  0  0  0  0  0  0
   -4.3526   -1.6394   -3.7004 O   0  0  0  0  0  0  0  0  0  0  0  0
   -0.2662    1.5466   -7.1849 N   0  0  0  0  0  0  0  0  0  0  0  0
    0.3204    2.1541   -7.9197 N   0  0  0  0  0  0  0  0  0  0  0  0
    2.4890    0.0005   -7.1340 S   0  0  0  0  0  0  0  0  0  0  0  0
    2.8427    0.7554   -5.4730 C   0  0  0  0  0  0  0  0  0  0  0  0
    2.4915    1.1899   -8.0375 O   0  0  0  0  0  0  0  0  0  0  0  0
    1.1024   -0.5254   -6.9327 O   0  0  0  0  0  0  0  0  0  0  0  0
    3.5385   -0.9915   -7.3508 O   0  0  0  0  0  0  0  0  0  0  0  0
    4.0163    1.3877   -5.4597 F   0  0  0  0  0  0  0  0  0  0  0  0
    1.8721    1.6673   -5.1841 F   0  0  0  0  0  0  0  0  0  0  0  0
    2.8333   -0.1667   -4.5059 F   0  0  0  0  0  0  0  0  0  0  0  0
  1  6  2  0  0  0  0
  2  3  2  0  0  0  0
  2  1  1  0  0  0  0
  3  4  1  0  0  0  0
  4  9  1  0  0  0  0
  4  5  2  0  0  0  0
  5 10  1  0  0  0  0
  6  5  1  0  0  0  0
  6 11  1  0  0  0  0
  7  1  1  0  0  0  0
  8  2  1  0  0  0  0
 11 12  2  0  0  0  0
 13 11  2  0  0  0  0
 14  3  1  0  0  0  0
 15 14  1  0  0  0  0
 16 19  1  0  0  0  0
 16 17  1  0  0  0  0
 17 21  1  0  0  0  0
 17 22  1  0  0  0  0
 17 23  1  0  0  0  0
 18 16  2  0  0  0  0
 20 16  2  0  0  0  0
M  RAD  3  14   2  15   3  19   2
M  END
