Coordinates from ORCA-job p-NO2-Ph-N2-X-OTf-B3LYPG-6-31G_dp-scan-d09-49-n400
 OpenBabel08281820583D

 23 22  0  0  0  0  0  0  0  0999 V2000
   -2.5674   -0.6941   -5.7083 C   0  0  0  0  0  0  0  0  0  0  0  0
   -1.5604    0.0004   -6.3656 C   0  0  0  0  0  0  0  0  0  0  0  0
   -1.2291    1.2750   -5.8834 C   0  0  0  0  0  0  0  0  0  0  0  0
   -1.8598    1.8801   -4.7913 C   0  0  0  0  0  0  0  0  0  0  0  0
   -2.8505    1.1635   -4.1315 C   0  0  0  0  0  0  0  0  0  0  0  0
   -3.1861   -0.1030   -4.6068 C   0  0  0  0  0  0  0  0  0  0  0  0
   -2.8699   -1.6833   -6.0261 H   0  0  0  0  0  0  0  0  0  0  0  0
   -1.0336   -0.4135   -7.2160 H   0  0  0  0  0  0  0  0  0  0  0  0
   -1.5664    2.8708   -4.4662 H   0  0  0  0  0  0  0  0  0  0  0  0
   -3.3667    1.5664   -3.2700 H   0  0  0  0  0  0  0  0  0  0  0  0
   -4.2586   -0.8537   -3.9117 N   0  0  0  0  0  0  0  0  0  0  0  0
   -4.7814   -0.3126   -2.9422 O   0  0  0  0  0  0  0  0  0  0  0  0
   -4.5479   -1.9581   -4.3599 O   0  0  0  0  0  0  0  0  0  0  0  0
   -0.2482    1.9989   -6.5626 N   0  0  0  0  0  0  0  0  0  0  0  0
    0.6594    2.1610   -7.2183 N   0  0  0  0  0  0  0  0  0  0  0  0
    2.2561   -0.2232   -6.3464 S   0  0  0  0  0  0  0  0  0  0  0  0
    3.7446    0.8884   -6.3019 C   0  0  0  0  0  0  0  0  0  0  0  0
    1.5429    0.2476   -7.6143 O   0  0  0  0  0  0  0  0  0  0  0  0
    1.4847    0.1464   -5.1413 O   0  0  0  0  0  0  0  0  0  0  0  0
    2.7883   -1.5813   -6.4561 O   0  0  0  0  0  0  0  0  0  0  0  0
    4.4919    0.7273   -7.3961 F   0  0  0  0  0  0  0  0  0  0  0  0
    3.3503    2.1764   -6.2390 F   0  0  0  0  0  0  0  0  0  0  0  0
    4.4871    0.6218   -5.2232 F   0  0  0  0  0  0  0  0  0  0  0  0
  1  6  2  0  0  0  0
  2  3  2  0  0  0  0
  2  1  1  0  0  0  0
  3  4  1  0  0  0  0
  4  9  1  0  0  0  0
  4  5  2  0  0  0  0
  5 10  1  0  0  0  0
  6  5  1  0  0  0  0
  6 11  1  0  0  0  0
  7  1  1  0  0  0  0
  8  2  1  0  0  0  0
 11 12  2  0  0  0  0
 13 11  2  0  0  0  0
 14  3  1  0  0  0  0
 15 14  1  0  0  0  0
 16 17  1  0  0  0  0
 16 19  1  0  0  0  0
 17 22  1  0  0  0  0
 17 23  1  0  0  0  0
 18 16  2  0  0  0  0
 20 16  2  0  0  0  0
 21 17  1  0  0  0  0
M  RAD  3  14   2  15   3  19   2
M  END
