Coordinates from ORCA-job p-NO2-Ph-N2-X-OTf-B3LYPG-6-31G_dp-scan-d09-49-n400
 OpenBabel08281820583D

 23 22  0  0  0  0  0  0  0  0999 V2000
   -2.4395   -0.7112   -5.6069 C   0  0  0  0  0  0  0  0  0  0  0  0
   -1.4203    0.0219   -6.2018 C   0  0  0  0  0  0  0  0  0  0  0  0
   -1.2370    1.3445   -5.7717 C   0  0  0  0  0  0  0  0  0  0  0  0
   -2.0208    1.9560   -4.7872 C   0  0  0  0  0  0  0  0  0  0  0  0
   -3.0238    1.2038   -4.1885 C   0  0  0  0  0  0  0  0  0  0  0  0
   -3.2134   -0.1096   -4.6151 C   0  0  0  0  0  0  0  0  0  0  0  0
   -2.6347   -1.7372   -5.8906 H   0  0  0  0  0  0  0  0  0  0  0  0
   -0.7733   -0.3915   -6.9661 H   0  0  0  0  0  0  0  0  0  0  0  0
   -1.8351    2.9835   -4.4977 H   0  0  0  0  0  0  0  0  0  0  0  0
   -3.6576    1.6125   -3.4121 H   0  0  0  0  0  0  0  0  0  0  0  0
   -4.2970   -0.9031   -3.9854 N   0  0  0  0  0  0  0  0  0  0  0  0
   -4.9529   -0.3539   -3.1057 O   0  0  0  0  0  0  0  0  0  0  0  0
   -4.4604   -2.0479   -4.3935 O   0  0  0  0  0  0  0  0  0  0  0  0
   -0.2400    2.1113   -6.3817 N   0  0  0  0  0  0  0  0  0  0  0  0
    0.6928    2.2629   -7.0086 N   0  0  0  0  0  0  0  0  0  0  0  0
    2.2442   -0.1981   -6.3543 S   0  0  0  0  0  0  0  0  0  0  0  0
    3.8190    0.7834   -6.4470 C   0  0  0  0  0  0  0  0  0  0  0  0
    1.4526    0.3609   -7.5431 O   0  0  0  0  0  0  0  0  0  0  0  0
    1.6246    0.2018   -5.0765 O   0  0  0  0  0  0  0  0  0  0  0  0
    2.6332   -1.5947   -6.5484 O   0  0  0  0  0  0  0  0  0  0  0  0
    4.4450    0.5651   -7.6059 F   0  0  0  0  0  0  0  0  0  0  0  0
    3.5423    2.0970   -6.3488 F   0  0  0  0  0  0  0  0  0  0  0  0
    4.6310    0.4437   -5.4415 F   0  0  0  0  0  0  0  0  0  0  0  0
  1  6  2  0  0  0  0
  2  3  2  0  0  0  0
  2  1  1  0  0  0  0
  3  4  1  0  0  0  0
  4  9  1  0  0  0  0
  4  5  2  0  0  0  0
  5 10  1  0  0  0  0
  6  5  1  0  0  0  0
  6 11  1  0  0  0  0
  7  1  1  0  0  0  0
  8  2  1  0  0  0  0
 11 12  2  0  0  0  0
 13 11  2  0  0  0  0
 14  3  1  0  0  0  0
 15 14  2  0  0  0  0
 16 19  1  0  0  0  0
 17 16  1  0  0  0  0
 17 22  1  0  0  0  0
 17 23  1  0  0  0  0
 18 16  2  0  0  0  0
 20 16  2  0  0  0  0
 21 17  1  0  0  0  0
M  RAD  2  15   2  19   2
M  END
