Coordinates from ORCA-job p-NO2-Ph-N2-X-OTf-B3LYPG-6-31G_dp-scan-d09-49-n400
 OpenBabel08281820583D

 23 22  0  0  0  0  0  0  0  0999 V2000
   -2.6077   -0.6857   -5.7398 C   0  0  0  0  0  0  0  0  0  0  0  0
   -1.6068   -0.0002   -6.4153 C   0  0  0  0  0  0  0  0  0  0  0  0
   -1.2302    1.2557   -5.9178 C   0  0  0  0  0  0  0  0  0  0  0  0
   -1.8116    1.8522   -4.7941 C   0  0  0  0  0  0  0  0  0  0  0  0
   -2.7964    1.1438   -4.1171 C   0  0  0  0  0  0  0  0  0  0  0  0
   -3.1768   -0.1046   -4.6066 C   0  0  0  0  0  0  0  0  0  0  0  0
   -2.9429   -1.6610   -6.0675 H   0  0  0  0  0  0  0  0  0  0  0  0
   -1.1186   -0.4093   -7.2906 H   0  0  0  0  0  0  0  0  0  0  0  0
   -1.4845    2.8285   -4.4578 H   0  0  0  0  0  0  0  0  0  0  0  0
   -3.2743    1.5397   -3.2307 H   0  0  0  0  0  0  0  0  0  0  0  0
   -4.2429   -0.8454   -3.8924 N   0  0  0  0  0  0  0  0  0  0  0  0
   -4.7191   -0.3150   -2.8934 O   0  0  0  0  0  0  0  0  0  0  0  0
   -4.5745   -1.9319   -4.3552 O   0  0  0  0  0  0  0  0  0  0  0  0
   -0.2551    1.9688   -6.6152 N   0  0  0  0  0  0  0  0  0  0  0  0
    0.6458    2.1378   -7.2765 N   0  0  0  0  0  0  0  0  0  0  0  0
    2.2549   -0.2177   -6.3335 S   0  0  0  0  0  0  0  0  0  0  0  0
    3.7277    0.9130   -6.2641 C   0  0  0  0  0  0  0  0  0  0  0  0
    1.5716    0.2248   -7.6256 O   0  0  0  0  0  0  0  0  0  0  0  0
    1.4482    0.1620   -5.1540 O   0  0  0  0  0  0  0  0  0  0  0  0
    2.8065   -1.5706   -6.4042 O   0  0  0  0  0  0  0  0  0  0  0  0
    4.5121    0.7410   -7.3302 F   0  0  0  0  0  0  0  0  0  0  0  0
    3.3153    2.1971   -6.2396 F   0  0  0  0  0  0  0  0  0  0  0  0
    4.4386    0.6782   -5.1571 F   0  0  0  0  0  0  0  0  0  0  0  0
  1  6  2  0  0  0  0
  2  3  2  0  0  0  0
  2  1  1  0  0  0  0
  3  4  1  0  0  0  0
  4  9  1  0  0  0  0
  4  5  2  0  0  0  0
  5 10  1  0  0  0  0
  6  5  1  0  0  0  0
  6 11  1  0  0  0  0
  7  1  1  0  0  0  0
  8  2  1  0  0  0  0
 11 12  2  0  0  0  0
 13 11  2  0  0  0  0
 14  3  1  0  0  0  0
 15 14  1  0  0  0  0
 16 17  1  0  0  0  0
 16 19  1  0  0  0  0
 17 22  1  0  0  0  0
 17 23  1  0  0  0  0
 18 16  2  0  0  0  0
 20 16  2  0  0  0  0
 21 17  1  0  0  0  0
M  RAD  3  14   2  15   3  19   2
M  END
