Coordinates from ORCA-job p-NO2-Ph-N2-X-OTf-B3LYPG-6-31G_dp-scan-d09-49-n400
 OpenBabel08281820573D

 23 22  0  0  0  0  0  0  0  0999 V2000
   -1.9370   -0.7062   -5.0278 C   0  0  0  0  0  0  0  0  0  0  0  0
   -0.9170    0.2339   -5.1695 C   0  0  0  0  0  0  0  0  0  0  0  0
   -1.3012    1.5815   -5.1098 C   0  0  0  0  0  0  0  0  0  0  0  0
   -2.6162    2.0293   -4.9059 C   0  0  0  0  0  0  0  0  0  0  0  0
   -3.6106    1.0724   -4.7765 C   0  0  0  0  0  0  0  0  0  0  0  0
   -3.2471   -0.2749   -4.8396 C   0  0  0  0  0  0  0  0  0  0  0  0
   -1.7195   -1.7669   -5.0627 H   0  0  0  0  0  0  0  0  0  0  0  0
    0.1417   -0.0646   -5.3048 H   0  0  0  0  0  0  0  0  0  0  0  0
   -2.8405    3.0891   -4.8615 H   0  0  0  0  0  0  0  0  0  0  0  0
   -4.6474    1.3423   -4.6242 H   0  0  0  0  0  0  0  0  0  0  0  0
   -4.3173   -1.2935   -4.6909 N   0  0  0  0  0  0  0  0  0  0  0  0
   -5.4611   -0.8800   -4.5243 O   0  0  0  0  0  0  0  0  0  0  0  0
   -3.9810   -2.4706   -4.7455 O   0  0  0  0  0  0  0  0  0  0  0  0
   -0.3054    2.5533   -5.2461 N   0  0  0  0  0  0  0  0  0  0  0  0
    0.6653    3.0554   -5.5177 N   0  0  0  0  0  0  0  0  0  0  0  0
    2.5904    0.6924   -6.0191 S   0  0  0  0  0  0  0  0  0  0  0  0
    3.6457   -0.0655   -7.3498 C   0  0  0  0  0  0  0  0  0  0  0  0
    1.6791    1.6015   -6.8172 O   0  0  0  0  0  0  0  0  0  0  0  0
    3.5057    1.3904   -5.1117 O   0  0  0  0  0  0  0  0  0  0  0  0
    1.8333   -0.4555   -5.4481 O   0  0  0  0  0  0  0  0  0  0  0  0
    2.8800   -0.7084   -8.2401 F   0  0  0  0  0  0  0  0  0  0  0  0
    4.3416    0.8838   -7.9832 F   0  0  0  0  0  0  0  0  0  0  0  0
    4.4979   -0.9382   -6.8023 F   0  0  0  0  0  0  0  0  0  0  0  0
  1  6  2  0  0  0  0
  2  3  2  0  0  0  0
  2  1  1  0  0  0  0
  3  4  1  0  0  0  0
  4  9  1  0  0  0  0
  4  5  2  0  0  0  0
  5 10  1  0  0  0  0
  6  5  1  0  0  0  0
  6 11  1  0  0  0  0
  7  1  1  0  0  0  0
  8  2  1  0  0  0  0
 11 12  2  0  0  0  0
 13 11  2  0  0  0  0
 14  3  1  0  0  0  0
 15 14  1  0  0  0  0
 16 20  2  0  0  0  0
 16 19  1  0  0  0  0
 17 23  1  0  0  0  0
 17 16  1  0  0  0  0
 18 16  2  0  0  0  0
 21 17  1  0  0  0  0
 22 17  1  0  0  0  0
M  RAD  3  14   2  15   3  19   2
M  END
