Coordinates from ORCA-job p-NO2-Ph-N2-X-OTf-B3LYPG-6-31G_dp-scan-d09-49-n400
 OpenBabel08281820583D

 23 22  0  0  0  0  0  0  0  0999 V2000
   -2.7316   -0.6666   -5.8008 C   0  0  0  0  0  0  0  0  0  0  0  0
   -1.7445   -0.0194   -6.5315 C   0  0  0  0  0  0  0  0  0  0  0  0
   -1.2335    1.1793   -6.0136 C   0  0  0  0  0  0  0  0  0  0  0  0
   -1.6690    1.7571   -4.8159 C   0  0  0  0  0  0  0  0  0  0  0  0
   -2.6443    1.0870   -4.0896 C   0  0  0  0  0  0  0  0  0  0  0  0
   -3.1586   -0.1050   -4.5978 C   0  0  0  0  0  0  0  0  0  0  0  0
   -3.1640   -1.5990   -6.1398 H   0  0  0  0  0  0  0  0  0  0  0  0
   -1.3670   -0.4210   -7.4634 H   0  0  0  0  0  0  0  0  0  0  0  0
   -1.2366    2.6849   -4.4620 H   0  0  0  0  0  0  0  0  0  0  0  0
   -3.0129    1.4698   -3.1472 H   0  0  0  0  0  0  0  0  0  0  0  0
   -4.2120   -0.8037   -3.8270 N   0  0  0  0  0  0  0  0  0  0  0  0
   -4.5682   -0.2868   -2.7723 O   0  0  0  0  0  0  0  0  0  0  0  0
   -4.6549   -1.8449   -4.3012 O   0  0  0  0  0  0  0  0  0  0  0  0
   -0.2728    1.8489   -6.7640 N   0  0  0  0  0  0  0  0  0  0  0  0
    0.5933    2.0865   -7.4427 N   0  0  0  0  0  0  0  0  0  0  0  0
    2.2714   -0.1985   -6.3496 S   0  0  0  0  0  0  0  0  0  0  0  0
    3.6815    0.9907   -6.1346 C   0  0  0  0  0  0  0  0  0  0  0  0
    1.7164    0.2050   -7.7036 O   0  0  0  0  0  0  0  0  0  0  0  0
    1.3342    0.1661   -5.2602 O   0  0  0  0  0  0  0  0  0  0  0  0
    2.8743   -1.5307   -6.3262 O   0  0  0  0  0  0  0  0  0  0  0  0
    4.5848    0.8433   -7.1068 F   0  0  0  0  0  0  0  0  0  0  0  0
    3.2144    2.2570   -6.1748 F   0  0  0  0  0  0  0  0  0  0  0  0
    4.2789    0.8013   -4.9537 F   0  0  0  0  0  0  0  0  0  0  0  0
  1  6  2  0  0  0  0
  2  3  2  0  0  0  0
  2  1  1  0  0  0  0
  3  4  1  0  0  0  0
  4  9  1  0  0  0  0
  4  5  2  0  0  0  0
  5 10  1  0  0  0  0
  6  5  1  0  0  0  0
  6 11  1  0  0  0  0
  7  1  1  0  0  0  0
  8  2  1  0  0  0  0
 11 12  2  0  0  0  0
 13 11  2  0  0  0  0
 14  3  1  0  0  0  0
 15 14  1  0  0  0  0
 16 20  2  0  0  0  0
 16 17  1  0  0  0  0
 16 19  1  0  0  0  0
 17 23  1  0  0  0  0
 18 16  2  0  0  0  0
 21 17  1  0  0  0  0
 22 17  1  0  0  0  0
M  RAD  3  14   2  15   3  19   2
M  END
