Coordinates from ORCA-job p-NO2-Ph-N2-X-OTf-B3LYPG-6-31G_dp-scan-d09-49-n400
 OpenBabel08281820573D

 23 22  0  0  0  0  0  0  0  0999 V2000
   -1.8908   -0.6910   -5.0370 C   0  0  0  0  0  0  0  0  0  0  0  0
   -0.8822    0.2665   -5.1575 C   0  0  0  0  0  0  0  0  0  0  0  0
   -1.2969    1.6041   -5.0847 C   0  0  0  0  0  0  0  0  0  0  0  0
   -2.6212    2.0324   -4.8912 C   0  0  0  0  0  0  0  0  0  0  0  0
   -3.5982    1.0569   -4.7807 C   0  0  0  0  0  0  0  0  0  0  0  0
   -3.2091   -0.2838   -4.8556 C   0  0  0  0  0  0  0  0  0  0  0  0
   -1.6566   -1.7478   -5.0827 H   0  0  0  0  0  0  0  0  0  0  0  0
    0.2020   -0.0085   -5.2884 H   0  0  0  0  0  0  0  0  0  0  0  0
   -2.8642    3.0877   -4.8390 H   0  0  0  0  0  0  0  0  0  0  0  0
   -4.6413    1.3058   -4.6355 H   0  0  0  0  0  0  0  0  0  0  0  0
   -4.2642   -1.3218   -4.7278 N   0  0  0  0  0  0  0  0  0  0  0  0
   -5.4159   -0.9288   -4.5660 O   0  0  0  0  0  0  0  0  0  0  0  0
   -3.9083   -2.4925   -4.7929 O   0  0  0  0  0  0  0  0  0  0  0  0
   -0.3118    2.5867   -5.2024 N   0  0  0  0  0  0  0  0  0  0  0  0
    0.6326    3.1506   -5.4257 N   0  0  0  0  0  0  0  0  0  0  0  0
    2.6107    0.7301   -6.0067 S   0  0  0  0  0  0  0  0  0  0  0  0
    3.5381   -0.1225   -7.3741 C   0  0  0  0  0  0  0  0  0  0  0  0
    1.7703    1.7292   -6.7598 O   0  0  0  0  0  0  0  0  0  0  0  0
    3.6244    1.3037   -5.1186 O   0  0  0  0  0  0  0  0  0  0  0  0
    1.7609   -0.3521   -5.4205 O   0  0  0  0  0  0  0  0  0  0  0  0
    2.6812   -0.6848   -8.2369 F   0  0  0  0  0  0  0  0  0  0  0  0
    4.2980    0.7581   -8.0327 F   0  0  0  0  0  0  0  0  0  0  0  0
    4.3219   -1.0770   -6.8620 F   0  0  0  0  0  0  0  0  0  0  0  0
  1  6  2  0  0  0  0
  2  3  2  0  0  0  0
  2  1  1  0  0  0  0
  3  4  1  0  0  0  0
  4  9  1  0  0  0  0
  4  5  2  0  0  0  0
  5 10  1  0  0  0  0
  6  5  1  0  0  0  0
  6 11  1  0  0  0  0
  7  1  1  0  0  0  0
  8  2  1  0  0  0  0
 11 12  2  0  0  0  0
 13 11  2  0  0  0  0
 14  3  1  0  0  0  0
 15 14  1  0  0  0  0
 16 20  2  0  0  0  0
 16 19  1  0  0  0  0
 17 23  1  0  0  0  0
 17 16  1  0  0  0  0
 18 16  2  0  0  0  0
 21 17  1  0  0  0  0
 22 17  1  0  0  0  0
M  RAD  3  14   2  15   3  19   2
M  END
