Coordinates from ORCA-job p-NO2-Ph-N2-X-OTf-B3LYPG-6-31G_dp-scan-d09-49-n400
 OpenBabel08281820573D

 23 22  0  0  0  0  0  0  0  0999 V2000
   -2.2115   -0.7128   -5.4903 C   0  0  0  0  0  0  0  0  0  0  0  0
   -1.2497    0.1403   -6.0210 C   0  0  0  0  0  0  0  0  0  0  0  0
   -1.3248    1.4971   -5.6670 C   0  0  0  0  0  0  0  0  0  0  0  0
   -2.3077    2.0239   -4.8188 C   0  0  0  0  0  0  0  0  0  0  0  0
   -3.2551    1.1565   -4.2923 C   0  0  0  0  0  0  0  0  0  0  0  0
   -3.1871   -0.1915   -4.6430 C   0  0  0  0  0  0  0  0  0  0  0  0
   -2.2061   -1.7709   -5.7200 H   0  0  0  0  0  0  0  0  0  0  0  0
   -0.4611   -0.2242   -6.6701 H   0  0  0  0  0  0  0  0  0  0  0  0
   -2.3137    3.0808   -4.5787 H   0  0  0  0  0  0  0  0  0  0  0  0
   -4.0362    1.4986   -3.6256 H   0  0  0  0  0  0  0  0  0  0  0  0
   -4.2074   -1.1133   -4.0849 N   0  0  0  0  0  0  0  0  0  0  0  0
   -5.0463   -0.6269   -3.3327 O   0  0  0  0  0  0  0  0  0  0  0  0
   -4.1465   -2.2885   -4.4280 O   0  0  0  0  0  0  0  0  0  0  0  0
   -0.3811    2.3918   -6.1825 N   0  0  0  0  0  0  0  0  0  0  0  0
    0.5662    2.6860   -6.7313 N   0  0  0  0  0  0  0  0  0  0  0  0
    2.1577    0.1878   -6.2588 S   0  0  0  0  0  0  0  0  0  0  0  0
    3.9627    0.3660   -6.6605 C   0  0  0  0  0  0  0  0  0  0  0  0
    1.4830    0.9208   -7.4207 O   0  0  0  0  0  0  0  0  0  0  0  0
    1.9545    0.8964   -4.9821 O   0  0  0  0  0  0  0  0  0  0  0  0
    1.8700   -1.2518   -6.3006 O   0  0  0  0  0  0  0  0  0  0  0  0
    4.2354   -0.2134   -7.8331 F   0  0  0  0  0  0  0  0  0  0  0  0
    4.2879    1.6630   -6.7305 F   0  0  0  0  0  0  0  0  0  0  0  0
    4.6962   -0.2146   -5.7056 F   0  0  0  0  0  0  0  0  0  0  0  0
  1  6  2  0  0  0  0
  2  3  2  0  0  0  0
  2  1  1  0  0  0  0
  3  4  1  0  0  0  0
  4  9  1  0  0  0  0
  4  5  2  0  0  0  0
  5 10  1  0  0  0  0
  6  5  1  0  0  0  0
  6 11  1  0  0  0  0
  7  1  1  0  0  0  0
  8  2  1  0  0  0  0
 11 12  2  0  0  0  0
 13 11  2  0  0  0  0
 14  3  1  0  0  0  0
 15 14  1  0  0  0  0
 16 19  1  0  0  0  0
 17 16  1  0  0  0  0
 17 23  1  0  0  0  0
 18 16  2  0  0  0  0
 20 16  2  0  0  0  0
 21 17  1  0  0  0  0
 22 17  1  0  0  0  0
M  RAD  3  14   2  15   3  19   2
M  END
