Coordinates from ORCA-job p-NO2-Ph-N2-X-OTf-B3LYPG-6-31G_dp-scan-d09-49-n400
 OpenBabel08281820573D

 23 22  0  0  0  0  0  0  0  0999 V2000
   -2.0672   -0.7338   -5.0838 C   0  0  0  0  0  0  0  0  0  0  0  0
   -1.0215    0.1537   -5.3249 C   0  0  0  0  0  0  0  0  0  0  0  0
   -1.3122    1.5229   -5.2219 C   0  0  0  0  0  0  0  0  0  0  0  0
   -2.5751    2.0297   -4.8828 C   0  0  0  0  0  0  0  0  0  0  0  0
   -3.6057    1.1281   -4.6585 C   0  0  0  0  0  0  0  0  0  0  0  0
   -3.3276   -0.2348   -4.7634 C   0  0  0  0  0  0  0  0  0  0  0  0
   -1.9103   -1.8039   -5.1434 H   0  0  0  0  0  0  0  0  0  0  0  0
   -0.0222   -0.2060   -5.5672 H   0  0  0  0  0  0  0  0  0  0  0  0
   -2.7342    3.0995   -4.8075 H   0  0  0  0  0  0  0  0  0  0  0  0
   -4.6048    1.4544   -4.4010 H   0  0  0  0  0  0  0  0  0  0  0  0
   -4.4303   -1.1964   -4.5154 N   0  0  0  0  0  0  0  0  0  0  0  0
   -5.5285   -0.7251   -4.2344 O   0  0  0  0  0  0  0  0  0  0  0  0
   -4.1646   -2.3892   -4.6097 O   0  0  0  0  0  0  0  0  0  0  0  0
   -0.2933    2.4587   -5.4448 N   0  0  0  0  0  0  0  0  0  0  0  0
    0.7092    2.8304   -5.8205 N   0  0  0  0  0  0  0  0  0  0  0  0
    2.5244    0.4926   -6.0761 S   0  0  0  0  0  0  0  0  0  0  0  0
    3.9015    0.1339   -7.2734 C   0  0  0  0  0  0  0  0  0  0  0  0
    1.5344    1.2568   -6.9517 O   0  0  0  0  0  0  0  0  0  0  0  0
    3.1029    1.3230   -5.0112 O   0  0  0  0  0  0  0  0  0  0  0  0
    1.9827   -0.8280   -5.6942 O   0  0  0  0  0  0  0  0  0  0  0  0
    3.4415   -0.5806   -8.3058 F   0  0  0  0  0  0  0  0  0  0  0  0
    4.4198    1.2772   -7.7325 F   0  0  0  0  0  0  0  0  0  0  0  0
    4.8600   -0.5623   -6.6539 F   0  0  0  0  0  0  0  0  0  0  0  0
  1  6  2  0  0  0  0
  2  3  2  0  0  0  0
  2  1  1  0  0  0  0
  3  4  1  0  0  0  0
  4  9  1  0  0  0  0
  4  5  2  0  0  0  0
  5 10  1  0  0  0  0
  6  5  1  0  0  0  0
  6 11  1  0  0  0  0
  7  1  1  0  0  0  0
  8  2  1  0  0  0  0
 11 12  2  0  0  0  0
 13 11  2  0  0  0  0
 14  3  1  0  0  0  0
 15 14  1  0  0  0  0
 16 20  2  0  0  0  0
 16 19  1  0  0  0  0
 17 23  1  0  0  0  0
 17 16  1  0  0  0  0
 18 16  2  0  0  0  0
 21 17  1  0  0  0  0
 22 17  1  0  0  0  0
M  RAD  3  14   2  15   3  19   2
M  END
