Coordinates from ORCA-job p-NO2-Ph-N2-X-OTf-B3LYPG-6-31G_dp-scan-d09-49-n400
 OpenBabel08281820583D

 23 22  0  0  0  0  0  0  0  0999 V2000
   -2.6620   -0.6750   -5.7738 C   0  0  0  0  0  0  0  0  0  0  0  0
   -1.6682   -0.0036   -6.4733 C   0  0  0  0  0  0  0  0  0  0  0  0
   -1.2318    1.2268   -5.9613 C   0  0  0  0  0  0  0  0  0  0  0  0
   -1.7488    1.8127   -4.8010 C   0  0  0  0  0  0  0  0  0  0  0  0
   -2.7278    1.1179   -4.1023 C   0  0  0  0  0  0  0  0  0  0  0  0
   -3.1671   -0.1058   -4.6050 C   0  0  0  0  0  0  0  0  0  0  0  0
   -3.0403   -1.6313   -6.1107 H   0  0  0  0  0  0  0  0  0  0  0  0
   -1.2314   -0.4069   -7.3778 H   0  0  0  0  0  0  0  0  0  0  0  0
   -1.3763    2.7684   -4.4534 H   0  0  0  0  0  0  0  0  0  0  0  0
   -3.1564    1.5058   -3.1877 H   0  0  0  0  0  0  0  0  0  0  0  0
   -4.2263   -0.8314   -3.8664 N   0  0  0  0  0  0  0  0  0  0  0  0
   -4.6469   -0.3108   -2.8377 O   0  0  0  0  0  0  0  0  0  0  0  0
   -4.6089   -1.8963   -4.3401 O   0  0  0  0  0  0  0  0  0  0  0  0
   -0.2632    1.9238   -6.6812 N   0  0  0  0  0  0  0  0  0  0  0  0
    0.6276    2.1083   -7.3495 N   0  0  0  0  0  0  0  0  0  0  0  0
    2.2583   -0.2106   -6.3250 S   0  0  0  0  0  0  0  0  0  0  0  0
    3.7071    0.9469   -6.2127 C   0  0  0  0  0  0  0  0  0  0  0  0
    1.6198    0.2028   -7.6463 O   0  0  0  0  0  0  0  0  0  0  0  0
    1.4015    0.1729   -5.1811 O   0  0  0  0  0  0  0  0  0  0  0  0
    2.8351   -1.5547   -6.3496 O   0  0  0  0  0  0  0  0  0  0  0  0
    4.5377    0.7751   -7.2434 F   0  0  0  0  0  0  0  0  0  0  0  0
    3.2704    2.2237   -6.2245 F   0  0  0  0  0  0  0  0  0  0  0  0
    4.3773    0.7425   -5.0745 F   0  0  0  0  0  0  0  0  0  0  0  0
  1  6  2  0  0  0  0
  2  3  2  0  0  0  0
  2  1  1  0  0  0  0
  3  4  1  0  0  0  0
  4  9  1  0  0  0  0
  4  5  2  0  0  0  0
  5 10  1  0  0  0  0
  6  5  1  0  0  0  0
  6 11  1  0  0  0  0
  7  1  1  0  0  0  0
  8  2  1  0  0  0  0
 11 12  2  0  0  0  0
 13 11  2  0  0  0  0
 14  3  1  0  0  0  0
 15 14  1  0  0  0  0
 16 17  1  0  0  0  0
 16 19  1  0  0  0  0
 17 23  1  0  0  0  0
 18 16  2  0  0  0  0
 20 16  2  0  0  0  0
 21 17  1  0  0  0  0
 22 17  1  0  0  0  0
M  RAD  3  14   2  15   3  19   2
M  END
