Coordinates from ORCA-job p-NO2-Ph-N2-X-OTf-B3LYPG-6-31G_dp-scan-d09-49-n400
 OpenBabel08281820573D

 23 22  0  0  0  0  0  0  0  0999 V2000
   -2.2136   -0.7121   -5.4927 C   0  0  0  0  0  0  0  0  0  0  0  0
   -1.2515    0.1406   -6.0234 C   0  0  0  0  0  0  0  0  0  0  0  0
   -1.3248    1.4968   -5.6682 C   0  0  0  0  0  0  0  0  0  0  0  0
   -2.3061    2.0240   -4.8185 C   0  0  0  0  0  0  0  0  0  0  0  0
   -3.2540    1.1572   -4.2918 C   0  0  0  0  0  0  0  0  0  0  0  0
   -3.1878   -0.1905   -4.6439 C   0  0  0  0  0  0  0  0  0  0  0  0
   -2.2095   -1.7700   -5.7235 H   0  0  0  0  0  0  0  0  0  0  0  0
   -0.4638   -0.2233   -6.6735 H   0  0  0  0  0  0  0  0  0  0  0  0
   -2.3107    3.0807   -4.5776 H   0  0  0  0  0  0  0  0  0  0  0  0
   -4.0340    1.4995   -3.6240 H   0  0  0  0  0  0  0  0  0  0  0  0
   -4.2085   -1.1118   -4.0857 N   0  0  0  0  0  0  0  0  0  0  0  0
   -5.0427   -0.6264   -3.3276 O   0  0  0  0  0  0  0  0  0  0  0  0
   -4.1457   -2.2879   -4.4253 O   0  0  0  0  0  0  0  0  0  0  0  0
   -0.3804    2.3903   -6.1843 N   0  0  0  0  0  0  0  0  0  0  0  0
    0.5669    2.6832   -6.7336 N   0  0  0  0  0  0  0  0  0  0  0  0
    2.1572    0.1840   -6.2590 S   0  0  0  0  0  0  0  0  0  0  0  0
    3.9621    0.3686   -6.6584 C   0  0  0  0  0  0  0  0  0  0  0  0
    1.4826    0.9169   -7.4213 O   0  0  0  0  0  0  0  0  0  0  0  0
    1.9507    0.8908   -4.9819 O   0  0  0  0  0  0  0  0  0  0  0  0
    1.8755   -1.2567   -6.3024 O   0  0  0  0  0  0  0  0  0  0  0  0
    4.2380   -0.2089   -7.8313 F   0  0  0  0  0  0  0  0  0  0  0  0
    4.2830    1.6667   -6.7270 F   0  0  0  0  0  0  0  0  0  0  0  0
    4.6964   -0.2104   -5.7033 F   0  0  0  0  0  0  0  0  0  0  0  0
  1  6  2  0  0  0  0
  2  3  2  0  0  0  0
  2  1  1  0  0  0  0
  3  4  1  0  0  0  0
  4  9  1  0  0  0  0
  4  5  2  0  0  0  0
  5 10  1  0  0  0  0
  6  5  1  0  0  0  0
  6 11  1  0  0  0  0
  7  1  1  0  0  0  0
  8  2  1  0  0  0  0
 11 12  2  0  0  0  0
 13 11  2  0  0  0  0
 14  3  1  0  0  0  0
 15 14  1  0  0  0  0
 16 19  1  0  0  0  0
 17 16  1  0  0  0  0
 17 23  1  0  0  0  0
 18 16  2  0  0  0  0
 20 16  2  0  0  0  0
 21 17  1  0  0  0  0
 22 17  1  0  0  0  0
M  RAD  3  14   2  15   3  19   2
M  END
