Coordinates from ORCA-job p-NO2-Ph-N2-X-OTf-B3LYPG-6-31G_dp-scan-d09-49-n400
 OpenBabel08281820573D

 23 22  0  0  0  0  0  0  0  0999 V2000
   -2.1470   -0.7410   -5.2147 C   0  0  0  0  0  0  0  0  0  0  0  0
   -1.1103    0.1191   -5.5662 C   0  0  0  0  0  0  0  0  0  0  0  0
   -1.3251    1.4935   -5.3758 C   0  0  0  0  0  0  0  0  0  0  0  0
   -2.5114    2.0282   -4.8535 C   0  0  0  0  0  0  0  0  0  0  0  0
   -3.5369    1.1553   -4.5179 C   0  0  0  0  0  0  0  0  0  0  0  0
   -3.3308   -0.2111   -4.7060 C   0  0  0  0  0  0  0  0  0  0  0  0
   -2.0428   -1.8127   -5.3321 H   0  0  0  0  0  0  0  0  0  0  0  0
   -0.1721   -0.2612   -5.9582 H   0  0  0  0  0  0  0  0  0  0  0  0
   -2.6156    3.0991   -4.7204 H   0  0  0  0  0  0  0  0  0  0  0  0
   -4.4777    1.5064   -4.1147 H   0  0  0  0  0  0  0  0  0  0  0  0
   -4.4270   -1.1427   -4.3426 N   0  0  0  0  0  0  0  0  0  0  0  0
   -5.4555   -0.6453   -3.8934 O   0  0  0  0  0  0  0  0  0  0  0  0
   -4.2263   -2.3389   -4.5190 O   0  0  0  0  0  0  0  0  0  0  0  0
   -0.3115    2.4049   -5.6994 N   0  0  0  0  0  0  0  0  0  0  0  0
    0.6839    2.7294   -6.1363 N   0  0  0  0  0  0  0  0  0  0  0  0
    2.4293    0.3541   -6.1382 S   0  0  0  0  0  0  0  0  0  0  0  0
    4.0176    0.2585   -7.0987 C   0  0  0  0  0  0  0  0  0  0  0  0
    1.4970    1.0669   -7.1186 O   0  0  0  0  0  0  0  0  0  0  0  0
    2.7121    1.1744   -4.9494 O   0  0  0  0  0  0  0  0  0  0  0  0
    2.0059   -1.0407   -5.9270 O   0  0  0  0  0  0  0  0  0  0  0  0
    3.8300   -0.4242   -8.2323 F   0  0  0  0  0  0  0  0  0  0  0  0
    4.4457    1.4897   -7.3984 F   0  0  0  0  0  0  0  0  0  0  0  0
    4.9479   -0.3604   -6.3652 F   0  0  0  0  0  0  0  0  0  0  0  0
  1  6  2  0  0  0  0
  2  3  2  0  0  0  0
  2  1  1  0  0  0  0
  3  4  1  0  0  0  0
  4  9  1  0  0  0  0
  4  5  2  0  0  0  0
  5 10  1  0  0  0  0
  6  5  1  0  0  0  0
  6 11  1  0  0  0  0
  7  1  1  0  0  0  0
  8  2  1  0  0  0  0
 11 12  2  0  0  0  0
 13 11  2  0  0  0  0
 14  3  1  0  0  0  0
 15 14  1  0  0  0  0
 16 20  2  0  0  0  0
 16 19  1  0  0  0  0
 17 23  1  0  0  0  0
 17 16  1  0  0  0  0
 18 16  2  0  0  0  0
 21 17  1  0  0  0  0
 22 17  1  0  0  0  0
M  RAD  3  14   2  15   3  19   2
M  END
