Coordinates from ORCA-job p-NO2-Ph-N2-X-OTf-B3LYPG-6-31G_dp-scan-d09-49-n400
 OpenBabel08281820573D

 23 22  0  0  0  0  0  0  0  0999 V2000
   -2.4095   -0.7148   -5.5767 C   0  0  0  0  0  0  0  0  0  0  0  0
   -1.3855    0.0310   -6.1474 C   0  0  0  0  0  0  0  0  0  0  0  0
   -1.2439    1.3633   -5.7305 C   0  0  0  0  0  0  0  0  0  0  0  0
   -2.0729    1.9706   -4.7808 C   0  0  0  0  0  0  0  0  0  0  0  0
   -3.0817    1.2068   -4.2071 C   0  0  0  0  0  0  0  0  0  0  0  0
   -3.2298   -0.1158   -4.6214 C   0  0  0  0  0  0  0  0  0  0  0  0
   -2.5741   -1.7483   -5.8527 H   0  0  0  0  0  0  0  0  0  0  0  0
   -0.7046   -0.3786   -6.8843 H   0  0  0  0  0  0  0  0  0  0  0  0
   -1.9173    3.0053   -4.4990 H   0  0  0  0  0  0  0  0  0  0  0  0
   -3.7505    1.6130   -3.4591 H   0  0  0  0  0  0  0  0  0  0  0  0
   -4.3188   -0.9229   -4.0184 N   0  0  0  0  0  0  0  0  0  0  0  0
   -5.0175   -0.3745   -3.1717 O   0  0  0  0  0  0  0  0  0  0  0  0
   -4.4432   -2.0771   -4.4135 O   0  0  0  0  0  0  0  0  0  0  0  0
   -0.2410    2.1453   -6.3125 N   0  0  0  0  0  0  0  0  0  0  0  0
    0.7029    2.2968   -6.9246 N   0  0  0  0  0  0  0  0  0  0  0  0
    2.2507   -0.1708   -6.3369 S   0  0  0  0  0  0  0  0  0  0  0  0
    3.8574    0.7452   -6.5124 C   0  0  0  0  0  0  0  0  0  0  0  0
    1.4307    0.4072   -7.4992 O   0  0  0  0  0  0  0  0  0  0  0  0
    1.7019    0.2647   -5.0395 O   0  0  0  0  0  0  0  0  0  0  0  0
    2.5694   -1.5846   -6.5352 O   0  0  0  0  0  0  0  0  0  0  0  0
    4.4268    0.4763   -7.6897 F   0  0  0  0  0  0  0  0  0  0  0  0
    3.6355    2.0694   -6.4336 F   0  0  0  0  0  0  0  0  0  0  0  0
    4.6944    0.3937   -5.5319 F   0  0  0  0  0  0  0  0  0  0  0  0
  1  6  2  0  0  0  0
  2  3  2  0  0  0  0
  2  1  1  0  0  0  0
  3  4  1  0  0  0  0
  4  9  1  0  0  0  0
  4  5  2  0  0  0  0
  5 10  1  0  0  0  0
  6  5  1  0  0  0  0
  6 11  1  0  0  0  0
  7  1  1  0  0  0  0
  8  2  1  0  0  0  0
 11 12  2  0  0  0  0
 13 11  2  0  0  0  0
 14  3  1  0  0  0  0
 15 14  2  0  0  0  0
 16 19  1  0  0  0  0
 17 22  1  0  0  0  0
 17 16  1  0  0  0  0
 17 23  1  0  0  0  0
 18 16  2  0  0  0  0
 20 16  2  0  0  0  0
 21 17  1  0  0  0  0
M  RAD  2  15   2  19   2
M  END
