Coordinates from ORCA-job p-NO2-Ph-N2-X-OTf-B3LYPG-6-31G_dp-scan-d09-49-n400
 OpenBabel08281820583D

 23 22  0  0  0  0  0  0  0  0999 V2000
   -2.6942   -0.6717   -5.7879 C   0  0  0  0  0  0  0  0  0  0  0  0
   -1.7046   -0.0111   -6.5033 C   0  0  0  0  0  0  0  0  0  0  0  0
   -1.2329    1.2048   -5.9880 C   0  0  0  0  0  0  0  0  0  0  0  0
   -1.7104    1.7867   -4.8086 C   0  0  0  0  0  0  0  0  0  0  0  0
   -2.6865    1.1028   -4.0959 C   0  0  0  0  0  0  0  0  0  0  0  0
   -3.1615   -0.1064   -4.6017 C   0  0  0  0  0  0  0  0  0  0  0  0
   -3.0979   -1.6172   -6.1260 H   0  0  0  0  0  0  0  0  0  0  0  0
   -1.2964   -0.4142   -7.4213 H   0  0  0  0  0  0  0  0  0  0  0  0
   -1.3096    2.7296   -4.4576 H   0  0  0  0  0  0  0  0  0  0  0  0
   -3.0859    1.4881   -3.1671 H   0  0  0  0  0  0  0  0  0  0  0  0
   -4.2170   -0.8200   -3.8471 N   0  0  0  0  0  0  0  0  0  0  0  0
   -4.6060   -0.3016   -2.8048 O   0  0  0  0  0  0  0  0  0  0  0  0
   -4.6280   -1.8741   -4.3212 O   0  0  0  0  0  0  0  0  0  0  0  0
   -0.2691    1.8894   -6.7229 N   0  0  0  0  0  0  0  0  0  0  0  0
    0.6092    2.1050   -7.3952 N   0  0  0  0  0  0  0  0  0  0  0  0
    2.2604   -0.2025   -6.3356 S   0  0  0  0  0  0  0  0  0  0  0  0
    3.6955    0.9655   -6.1745 C   0  0  0  0  0  0  0  0  0  0  0  0
    1.6651    0.2054   -7.6744 O   0  0  0  0  0  0  0  0  0  0  0  0
    1.3643    0.1782   -5.2190 O   0  0  0  0  0  0  0  0  0  0  0  0
    2.8452   -1.5435   -6.3322 O   0  0  0  0  0  0  0  0  0  0  0  0
    4.5617    0.8008   -7.1770 F   0  0  0  0  0  0  0  0  0  0  0  0
    3.2478    2.2387   -6.2022 F   0  0  0  0  0  0  0  0  0  0  0  0
    4.3301    0.7686   -5.0146 F   0  0  0  0  0  0  0  0  0  0  0  0
  1  6  2  0  0  0  0
  2  3  2  0  0  0  0
  2  1  1  0  0  0  0
  3  4  1  0  0  0  0
  4  9  1  0  0  0  0
  4  5  2  0  0  0  0
  5 10  1  0  0  0  0
  6  5  1  0  0  0  0
  6 11  1  0  0  0  0
  7  1  1  0  0  0  0
  8  2  1  0  0  0  0
 11 12  2  0  0  0  0
 13 11  2  0  0  0  0
 14  3  1  0  0  0  0
 15 14  1  0  0  0  0
 16 20  2  0  0  0  0
 16 17  1  0  0  0  0
 16 19  1  0  0  0  0
 17 23  1  0  0  0  0
 18 16  2  0  0  0  0
 21 17  1  0  0  0  0
 22 17  1  0  0  0  0
M  RAD  3  14   2  15   3  19   2
M  END
