Coordinates from ORCA-job p-NO2-Ph-N2-X-OTf-B3LYPG-6-31G_dp-scan-d09-49-n400
 OpenBabel08281820573D

 23 22  0  0  0  0  0  0  0  0999 V2000
   -1.9089   -0.6967   -5.0369 C   0  0  0  0  0  0  0  0  0  0  0  0
   -0.8959    0.2541   -5.1670 C   0  0  0  0  0  0  0  0  0  0  0  0
   -1.2989    1.5953   -5.0955 C   0  0  0  0  0  0  0  0  0  0  0  0
   -2.6189    2.0312   -4.8931 C   0  0  0  0  0  0  0  0  0  0  0  0
   -3.6024    1.0627   -4.7741 C   0  0  0  0  0  0  0  0  0  0  0  0
   -3.2235   -0.2805   -4.8480 C   0  0  0  0  0  0  0  0  0  0  0  0
   -1.6815   -1.7551   -5.0811 H   0  0  0  0  0  0  0  0  0  0  0  0
    0.1787   -0.0303   -5.3037 H   0  0  0  0  0  0  0  0  0  0  0  0
   -2.8544    3.0882   -4.8412 H   0  0  0  0  0  0  0  0  0  0  0  0
   -4.6426    1.3196   -4.6224 H   0  0  0  0  0  0  0  0  0  0  0  0
   -4.2841   -1.3112   -4.7105 N   0  0  0  0  0  0  0  0  0  0  0  0
   -5.4322   -0.9105   -4.5423 O   0  0  0  0  0  0  0  0  0  0  0  0
   -3.9362   -2.4844   -4.7751 O   0  0  0  0  0  0  0  0  0  0  0  0
   -0.3096    2.5739   -5.2214 N   0  0  0  0  0  0  0  0  0  0  0  0
    0.6438    3.1161   -5.4654 N   0  0  0  0  0  0  0  0  0  0  0  0
    2.5965    0.7175   -6.0166 S   0  0  0  0  0  0  0  0  0  0  0  0
    3.5847   -0.1022   -7.3616 C   0  0  0  0  0  0  0  0  0  0  0  0
    1.7361    1.6850   -6.7926 O   0  0  0  0  0  0  0  0  0  0  0  0
    3.5674    1.3370   -5.1110 O   0  0  0  0  0  0  0  0  0  0  0  0
    1.7745   -0.3902   -5.4442 O   0  0  0  0  0  0  0  0  0  0  0  0
    2.7690   -0.6948   -8.2430 F   0  0  0  0  0  0  0  0  0  0  0  0
    4.3288    0.8041   -8.0032 F   0  0  0  0  0  0  0  0  0  0  0  0
    4.3890   -1.0276   -6.8284 F   0  0  0  0  0  0  0  0  0  0  0  0
  1  6  2  0  0  0  0
  2  3  2  0  0  0  0
  2  1  1  0  0  0  0
  3  4  1  0  0  0  0
  4  9  1  0  0  0  0
  4  5  2  0  0  0  0
  5 10  1  0  0  0  0
  6  5  1  0  0  0  0
  6 11  1  0  0  0  0
  7  1  1  0  0  0  0
  8  2  1  0  0  0  0
 11 12  2  0  0  0  0
 13 11  2  0  0  0  0
 14  3  1  0  0  0  0
 15 14  1  0  0  0  0
 16 20  2  0  0  0  0
 16 19  1  0  0  0  0
 17 23  1  0  0  0  0
 17 16  1  0  0  0  0
 18 16  2  0  0  0  0
 21 17  1  0  0  0  0
 22 17  1  0  0  0  0
M  RAD  3  14   2  15   3  19   2
M  END
