Coordinates from ORCA-job p-NO2-Ph-N2-X-OTf-B3LYPG-6-31G_dp-scan-d09-49-n400
 OpenBabel08281820573D

 23 22  0  0  0  0  0  0  0  0999 V2000
   -1.7960   -0.6564   -5.0292 C   0  0  0  0  0  0  0  0  0  0  0  0
   -0.8079    0.3310   -5.1118 C   0  0  0  0  0  0  0  0  0  0  0  0
   -1.2819    1.6487   -5.0445 C   0  0  0  0  0  0  0  0  0  0  0  0
   -2.6258    2.0412   -4.8965 C   0  0  0  0  0  0  0  0  0  0  0  0
   -3.5703    1.0336   -4.8206 C   0  0  0  0  0  0  0  0  0  0  0  0
   -3.1311   -0.2942   -4.8883 C   0  0  0  0  0  0  0  0  0  0  0  0
   -1.5294   -1.7060   -5.0736 H   0  0  0  0  0  0  0  0  0  0  0  0
    0.3366    0.0852   -5.2221 H   0  0  0  0  0  0  0  0  0  0  0  0
   -2.9052    3.0880   -4.8507 H   0  0  0  0  0  0  0  0  0  0  0  0
   -4.6257    1.2450   -4.7092 H   0  0  0  0  0  0  0  0  0  0  0  0
   -4.1567   -1.3665   -4.7995 N   0  0  0  0  0  0  0  0  0  0  0  0
   -5.3254   -1.0113   -4.6744 O   0  0  0  0  0  0  0  0  0  0  0  0
   -3.7623   -2.5250   -4.8573 O   0  0  0  0  0  0  0  0  0  0  0  0
   -0.3222    2.6573   -5.1261 N   0  0  0  0  0  0  0  0  0  0  0  0
    0.5670    3.3184   -5.2665 N   0  0  0  0  0  0  0  0  0  0  0  0
    2.6537    0.7549   -5.9673 S   0  0  0  0  0  0  0  0  0  0  0  0
    3.3134   -0.2004   -7.4181 C   0  0  0  0  0  0  0  0  0  0  0  0
    1.8996    1.8747   -6.6096 O   0  0  0  0  0  0  0  0  0  0  0  0
    3.8156    1.1229   -5.1584 O   0  0  0  0  0  0  0  0  0  0  0  0
    1.7091   -0.2279   -5.3212 O   0  0  0  0  0  0  0  0  0  0  0  0
    2.3046   -0.5992   -8.2065 F   0  0  0  0  0  0  0  0  0  0  0  0
    4.1415    0.5665   -8.1344 F   0  0  0  0  0  0  0  0  0  0  0  0
    3.9780   -1.2795   -6.9927 F   0  0  0  0  0  0  0  0  0  0  0  0
  1  6  2  0  0  0  0
  2  3  2  0  0  0  0
  2  1  1  0  0  0  0
  3  4  1  0  0  0  0
  4  9  1  0  0  0  0
  4  5  2  0  0  0  0
  5 10  1  0  0  0  0
  6  5  1  0  0  0  0
  6 11  1  0  0  0  0
  7  1  1  0  0  0  0
  8  2  1  0  0  0  0
 11 12  2  0  0  0  0
 13 11  2  0  0  0  0
 14  3  1  0  0  0  0
 15 14  1  0  0  0  0
 16 20  2  0  0  0  0
 16 19  1  0  0  0  0
 17 23  1  0  0  0  0
 17 16  1  0  0  0  0
 18 16  2  0  0  0  0
 21 17  1  0  0  0  0
 22 17  1  0  0  0  0
M  RAD  3  14   2  15   3  19   2
M  END
