Coordinates from ORCA-job p-NO2-Ph-N2-X-OTf-B3LYPG-6-31G_dp-scan-d09-49-n400
 OpenBabel08281820573D

 23 22  0  0  0  0  0  0  0  0999 V2000
   -1.8367   -0.6735   -5.0321 C   0  0  0  0  0  0  0  0  0  0  0  0
   -0.8410    0.3022   -5.1281 C   0  0  0  0  0  0  0  0  0  0  0  0
   -1.2890    1.6289   -5.0593 C   0  0  0  0  0  0  0  0  0  0  0  0
   -2.6251    2.0359   -4.8949 C   0  0  0  0  0  0  0  0  0  0  0  0
   -3.5838    1.0412   -4.8071 C   0  0  0  0  0  0  0  0  0  0  0  0
   -3.1656   -0.2921   -4.8772 C   0  0  0  0  0  0  0  0  0  0  0  0
   -1.5831   -1.7260   -5.0765 H   0  0  0  0  0  0  0  0  0  0  0  0
    0.2719    0.0500   -5.2425 H   0  0  0  0  0  0  0  0  0  0  0  0
   -2.8896    3.0862   -4.8467 H   0  0  0  0  0  0  0  0  0  0  0  0
   -4.6346    1.2683   -4.6839 H   0  0  0  0  0  0  0  0  0  0  0  0
   -4.2040   -1.3503   -4.7747 N   0  0  0  0  0  0  0  0  0  0  0  0
   -5.3661   -0.9792   -4.6366 O   0  0  0  0  0  0  0  0  0  0  0  0
   -3.8253   -2.5139   -4.8349 O   0  0  0  0  0  0  0  0  0  0  0  0
   -0.3168    2.6253   -5.1545 N   0  0  0  0  0  0  0  0  0  0  0  0
    0.6022    3.2398   -5.3306 N   0  0  0  0  0  0  0  0  0  0  0  0
    2.6466    0.7556   -5.9778 S   0  0  0  0  0  0  0  0  0  0  0  0
    3.4017   -0.1711   -7.4012 C   0  0  0  0  0  0  0  0  0  0  0  0
    1.8565    1.8301   -6.6670 O   0  0  0  0  0  0  0  0  0  0  0  0
    3.7625    1.2081   -5.1460 O   0  0  0  0  0  0  0  0  0  0  0  0
    1.7374   -0.2597   -5.3471 O   0  0  0  0  0  0  0  0  0  0  0  0
    2.4410   -0.6411   -8.2095 F   0  0  0  0  0  0  0  0  0  0  0  0
    4.1993    0.6379   -8.1056 F   0  0  0  0  0  0  0  0  0  0  0  0
    4.1210   -1.2014   -6.9444 F   0  0  0  0  0  0  0  0  0  0  0  0
  1  6  2  0  0  0  0
  2  3  2  0  0  0  0
  2  1  1  0  0  0  0
  3  4  1  0  0  0  0
  4  9  1  0  0  0  0
  4  5  2  0  0  0  0
  5 10  1  0  0  0  0
  6  5  1  0  0  0  0
  6 11  1  0  0  0  0
  7  1  1  0  0  0  0
  8  2  1  0  0  0  0
 11 12  2  0  0  0  0
 13 11  2  0  0  0  0
 14  3  1  0  0  0  0
 15 14  1  0  0  0  0
 16 20  2  0  0  0  0
 16 19  1  0  0  0  0
 17 23  1  0  0  0  0
 17 16  1  0  0  0  0
 18 16  2  0  0  0  0
 21 17  1  0  0  0  0
 22 17  1  0  0  0  0
M  RAD  3  14   2  15   3  19   2
M  END
