Coordinates from ORCA-job p-NO2-Ph-N2-X-OTf-B3LYPG-6-31G_dp-scan-d09-49-n400
 OpenBabel08281820583D

 23 22  0  0  0  0  0  0  0  0999 V2000
   -2.7121   -0.6686   -5.7948 C   0  0  0  0  0  0  0  0  0  0  0  0
   -1.7233   -0.0141   -6.5168 C   0  0  0  0  0  0  0  0  0  0  0  0
   -1.2327    1.1933   -5.9993 C   0  0  0  0  0  0  0  0  0  0  0  0
   -1.6903    1.7727   -4.8108 C   0  0  0  0  0  0  0  0  0  0  0  0
   -2.6664    1.0951   -4.0923 C   0  0  0  0  0  0  0  0  0  0  0  0
   -3.1603   -0.1056   -4.6002 C   0  0  0  0  0  0  0  0  0  0  0  0
   -3.1297   -1.6077   -6.1342 H   0  0  0  0  0  0  0  0  0  0  0  0
   -1.3294   -0.4158   -7.4418 H   0  0  0  0  0  0  0  0  0  0  0  0
   -1.2744    2.7083   -4.4577 H   0  0  0  0  0  0  0  0  0  0  0  0
   -3.0513    1.4787   -3.1567 H   0  0  0  0  0  0  0  0  0  0  0  0
   -4.2152   -0.8123   -3.8386 N   0  0  0  0  0  0  0  0  0  0  0  0
   -4.5892   -0.2948   -2.7904 O   0  0  0  0  0  0  0  0  0  0  0  0
   -4.6418   -1.8599   -4.3137 O   0  0  0  0  0  0  0  0  0  0  0  0
   -0.2701    1.8701   -6.7416 N   0  0  0  0  0  0  0  0  0  0  0  0
    0.6032    2.0927   -7.4175 N   0  0  0  0  0  0  0  0  0  0  0  0
    2.2659   -0.2017   -6.3400 S   0  0  0  0  0  0  0  0  0  0  0  0
    3.6883    0.9784   -6.1571 C   0  0  0  0  0  0  0  0  0  0  0  0
    1.6875    0.2009   -7.6864 O   0  0  0  0  0  0  0  0  0  0  0  0
    1.3514    0.1721   -5.2356 O   0  0  0  0  0  0  0  0  0  0  0  0
    2.8609   -1.5376   -6.3265 O   0  0  0  0  0  0  0  0  0  0  0  0
    4.5704    0.8223   -7.1472 F   0  0  0  0  0  0  0  0  0  0  0  0
    3.2298    2.2479   -6.1906 F   0  0  0  0  0  0  0  0  0  0  0  0
    4.3080    0.7867   -4.9882 F   0  0  0  0  0  0  0  0  0  0  0  0
  1  6  2  0  0  0  0
  2  3  2  0  0  0  0
  2  1  1  0  0  0  0
  3  4  1  0  0  0  0
  4  9  1  0  0  0  0
  4  5  2  0  0  0  0
  5 10  1  0  0  0  0
  6  5  1  0  0  0  0
  6 11  1  0  0  0  0
  7  1  1  0  0  0  0
  8  2  1  0  0  0  0
 11 12  2  0  0  0  0
 13 11  2  0  0  0  0
 14  3  1  0  0  0  0
 15 14  1  0  0  0  0
 16 20  2  0  0  0  0
 16 17  1  0  0  0  0
 16 19  1  0  0  0  0
 17 23  1  0  0  0  0
 18 16  2  0  0  0  0
 21 17  1  0  0  0  0
 22 17  1  0  0  0  0
M  RAD  3  14   2  15   3  19   2
M  END
