Coordinates from ORCA-job p-NO2-Ph-N2-X-OTf-B3LYPG-6-31G_dp-scan-d09-49-n400
 OpenBabel08281820583D

 23 22  0  0  0  0  0  0  0  0999 V2000
   -2.5372   -0.8033   -5.4629 C   0  0  0  0  0  0  0  0  0  0  0  0
   -1.5739   -0.3098   -6.3345 C   0  0  0  0  0  0  0  0  0  0  0  0
   -1.1361    1.0049   -6.1376 C   0  0  0  0  0  0  0  0  0  0  0  0
   -1.5972    1.8324   -5.1023 C   0  0  0  0  0  0  0  0  0  0  0  0
   -2.5424    1.3132   -4.2277 C   0  0  0  0  0  0  0  0  0  0  0  0
   -2.9984    0.0118   -4.4309 C   0  0  0  0  0  0  0  0  0  0  0  0
   -2.9212   -1.8104   -5.5620 H   0  0  0  0  0  0  0  0  0  0  0  0
   -1.1446   -0.9119   -7.1233 H   0  0  0  0  0  0  0  0  0  0  0  0
   -1.2142    2.8394   -4.9870 H   0  0  0  0  0  0  0  0  0  0  0  0
   -2.9326    1.8961   -3.4033 H   0  0  0  0  0  0  0  0  0  0  0  0
   -4.0199   -0.5282   -3.5033 N   0  0  0  0  0  0  0  0  0  0  0  0
   -4.3949    0.2080   -2.5956 O   0  0  0  0  0  0  0  0  0  0  0  0
   -4.4155   -1.6702   -3.7111 O   0  0  0  0  0  0  0  0  0  0  0  0
   -0.2196    1.5679   -7.0264 N   0  0  0  0  0  0  0  0  0  0  0  0
    0.3611    2.2439   -7.7059 N   0  0  0  0  0  0  0  0  0  0  0  0
    2.5263    0.0109   -7.2317 S   0  0  0  0  0  0  0  0  0  0  0  0
    3.0403    0.6778   -5.5759 C   0  0  0  0  0  0  0  0  0  0  0  0
    2.4704    1.2372   -8.0814 O   0  0  0  0  0  0  0  0  0  0  0  0
    1.1505   -0.5005   -6.9319 O   0  0  0  0  0  0  0  0  0  0  0  0
    3.5315   -0.9873   -7.5855 O   0  0  0  0  0  0  0  0  0  0  0  0
    4.2149    1.3066   -5.6449 F   0  0  0  0  0  0  0  0  0  0  0  0
    2.1097    1.5706   -5.1467 F   0  0  0  0  0  0  0  0  0  0  0  0
    3.1222   -0.2981   -4.6662 F   0  0  0  0  0  0  0  0  0  0  0  0
  1  6  2  0  0  0  0
  2  3  2  0  0  0  0
  2  1  1  0  0  0  0
  3  4  1  0  0  0  0
  4  9  1  0  0  0  0
  4  5  2  0  0  0  0
  5 10  1  0  0  0  0
  6  5  1  0  0  0  0
  6 11  1  0  0  0  0
  7  1  1  0  0  0  0
  8  2  1  0  0  0  0
 11 12  2  0  0  0  0
 13 11  2  0  0  0  0
 14  3  1  0  0  0  0
 15 14  1  0  0  0  0
 16 19  1  0  0  0  0
 16 17  1  0  0  0  0
 17 22  1  0  0  0  0
 17 23  1  0  0  0  0
 18 16  2  0  0  0  0
 20 16  2  0  0  0  0
 21 17  1  0  0  0  0
M  RAD  3  14   2  15   3  19   2
M  END
