Coordinates from ORCA-job p-NO2-Ph-N2-X-OTf-B3LYPG-6-31G_dp-scan-d09-49-n400
 OpenBabel08281820573D

 23 22  0  0  0  0  0  0  0  0999 V2000
   -1.6368   -0.5602   -4.9430 C   0  0  0  0  0  0  0  0  0  0  0  0
   -0.6644    0.4764   -4.9115 C   0  0  0  0  0  0  0  0  0  0  0  0
   -1.2878    1.7325   -4.9528 C   0  0  0  0  0  0  0  0  0  0  0  0
   -2.6658    2.0655   -5.0184 C   0  0  0  0  0  0  0  0  0  0  0  0
   -3.5406    1.0036   -5.0476 C   0  0  0  0  0  0  0  0  0  0  0  0
   -2.9969   -0.2948   -5.0081 C   0  0  0  0  0  0  0  0  0  0  0  0
   -1.3277   -1.6006   -4.9181 H   0  0  0  0  0  0  0  0  0  0  0  0
    1.1595    0.1147   -4.8883 H   0  0  0  0  0  0  0  0  0  0  0  0
   -3.0130    3.0937   -5.0463 H   0  0  0  0  0  0  0  0  0  0  0  0
   -4.6129    1.1383   -5.0999 H   0  0  0  0  0  0  0  0  0  0  0  0
   -3.9558   -1.4313   -5.0406 N   0  0  0  0  0  0  0  0  0  0  0  0
   -5.1530   -1.1561   -5.0990 O   0  0  0  0  0  0  0  0  0  0  0  0
   -3.4923   -2.5661   -5.0069 O   0  0  0  0  0  0  0  0  0  0  0  0
   -0.4084    2.8184   -4.9210 N   0  0  0  0  0  0  0  0  0  0  0  0
    0.3286    3.6535   -4.8895 N   0  0  0  0  0  0  0  0  0  0  0  0
    2.8696    0.7637   -5.9222 S   0  0  0  0  0  0  0  0  0  0  0  0
    2.7335   -0.3155   -7.4333 C   0  0  0  0  0  0  0  0  0  0  0  0
    2.1554    2.0005   -6.2401 O   0  0  0  0  0  0  0  0  0  0  0  0
    4.2614    0.7655   -5.5167 O   0  0  0  0  0  0  0  0  0  0  0  0
    2.0338   -0.0991   -4.8838 O   0  0  0  0  0  0  0  0  0  0  0  0
    1.4431   -0.5081   -7.7247 F   0  0  0  0  0  0  0  0  0  0  0  0
    3.3318    0.2964   -8.4556 F   0  0  0  0  0  0  0  0  0  0  0  0
    3.3182   -1.4898   -7.2107 F   0  0  0  0  0  0  0  0  0  0  0  0
  1  7  1  0  0  0  0
  1  2  1  0  0  0  0
  3 14  1  0  0  0  0
  3  2  2  0  0  0  0
  4  3  1  0  0  0  0
  5  4  2  0  0  0  0
  5  6  1  0  0  0  0
  6  1  2  0  0  0  0
  8 20  1  0  0  0  0
  9  4  1  0  0  0  0
 10  5  1  0  0  0  0
 11  6  1  0  0  0  0
 11 13  2  0  0  0  0
 12 11  2  0  0  0  0
 14 15  1  0  0  0  0
 16 19  2  0  0  0  0
 16 20  1  0  0  0  0
 17 23  1  0  0  0  0
 17 16  1  0  0  0  0
 18 16  2  0  0  0  0
 21 17  1  0  0  0  0
 22 17  1  0  0  0  0
M  RAD  3   2   2  14   2  15   3
M  END
