Coordinates from ORCA-job p-NO2-Ph-N2-X-OTf-B3LYPG-6-31G_dp-scan-d09-49-n400
 OpenBabel08281820583D

 23 22  0  0  0  0  0  0  0  0999 V2000
   -2.4787   -0.7071   -5.6391 C   0  0  0  0  0  0  0  0  0  0  0  0
   -1.4630    0.0113   -6.2570 C   0  0  0  0  0  0  0  0  0  0  0  0
   -1.2313    1.3209   -5.8114 C   0  0  0  0  0  0  0  0  0  0  0  0
   -1.9647    1.9350   -4.7908 C   0  0  0  0  0  0  0  0  0  0  0  0
   -2.9639    1.1965   -4.1689 C   0  0  0  0  0  0  0  0  0  0  0  0
   -3.2016   -0.1042   -4.6101 C   0  0  0  0  0  0  0  0  0  0  0  0
   -2.7094   -1.7229   -5.9325 H   0  0  0  0  0  0  0  0  0  0  0  0
   -0.8546   -0.4052   -7.0502 H   0  0  0  0  0  0  0  0  0  0  0  0
   -1.7438    2.9525   -4.4912 H   0  0  0  0  0  0  0  0  0  0  0  0
   -3.5593    1.6068   -3.3636 H   0  0  0  0  0  0  0  0  0  0  0  0
   -4.2820   -0.8815   -3.9558 N   0  0  0  0  0  0  0  0  0  0  0  0
   -4.8942   -0.3311   -3.0459 O   0  0  0  0  0  0  0  0  0  0  0  0
   -4.4870   -2.0154   -4.3757 O   0  0  0  0  0  0  0  0  0  0  0  0
   -0.2394    2.0708   -6.4482 N   0  0  0  0  0  0  0  0  0  0  0  0
    0.6829    2.2244   -7.0881 N   0  0  0  0  0  0  0  0  0  0  0  0
    2.2473   -0.2192   -6.3642 S   0  0  0  0  0  0  0  0  0  0  0  0
    3.7848    0.8242   -6.3876 C   0  0  0  0  0  0  0  0  0  0  0  0
    1.4823    0.3142   -7.5796 O   0  0  0  0  0  0  0  0  0  0  0  0
    1.5628    0.1512   -5.1096 O   0  0  0  0  0  0  0  0  0  0  0  0
    2.7042   -1.5972   -6.5427 O   0  0  0  0  0  0  0  0  0  0  0  0
    4.4576    0.6515   -7.5277 F   0  0  0  0  0  0  0  0  0  0  0  0
    3.4542    2.1254   -6.2776 F   0  0  0  0  0  0  0  0  0  0  0  0
    4.5759    0.5001   -5.3606 F   0  0  0  0  0  0  0  0  0  0  0  0
  1  6  2  0  0  0  0
  2  3  2  0  0  0  0
  2  1  1  0  0  0  0
  3  4  1  0  0  0  0
  4  9  1  0  0  0  0
  4  5  2  0  0  0  0
  5 10  1  0  0  0  0
  6  5  1  0  0  0  0
  6 11  1  0  0  0  0
  7  1  1  0  0  0  0
  8  2  1  0  0  0  0
 11 12  2  0  0  0  0
 13 11  2  0  0  0  0
 14  3  1  0  0  0  0
 15 14  1  0  0  0  0
 16 19  1  0  0  0  0
 17 16  1  0  0  0  0
 17 22  1  0  0  0  0
 17 23  1  0  0  0  0
 18 16  2  0  0  0  0
 20 16  2  0  0  0  0
 21 17  1  0  0  0  0
M  RAD  3  14   2  15   3  19   2
M  END
