Coordinates from ORCA-job p-NO2-Ph-N2-X-OTf-B3LYPG-6-31G_dp-scan-d09-49-n400
 OpenBabel08281820573D

 23 22  0  0  0  0  0  0  0  0999 V2000
   -1.6331   -0.5664   -4.9539 C   0  0  0  0  0  0  0  0  0  0  0  0
   -0.6609    0.4668   -4.9351 C   0  0  0  0  0  0  0  0  0  0  0  0
   -1.2722    1.7291   -4.9638 C   0  0  0  0  0  0  0  0  0  0  0  0
   -2.6496    2.0645   -5.0060 C   0  0  0  0  0  0  0  0  0  0  0  0
   -3.5300    1.0060   -5.0233 C   0  0  0  0  0  0  0  0  0  0  0  0
   -2.9931   -0.2943   -4.9955 C   0  0  0  0  0  0  0  0  0  0  0  0
   -1.3247   -1.6069   -4.9368 H   0  0  0  0  0  0  0  0  0  0  0  0
    1.0091    0.1262   -4.9375 H   0  0  0  0  0  0  0  0  0  0  0  0
   -2.9929    3.0940   -5.0262 H   0  0  0  0  0  0  0  0  0  0  0  0
   -4.6023    1.1465   -5.0574 H   0  0  0  0  0  0  0  0  0  0  0  0
   -3.9570   -1.4269   -5.0132 N   0  0  0  0  0  0  0  0  0  0  0  0
   -5.1534   -1.1459   -5.0515 O   0  0  0  0  0  0  0  0  0  0  0  0
   -3.4968   -2.5629   -4.9882 O   0  0  0  0  0  0  0  0  0  0  0  0
   -0.3907    2.8126   -4.9416 N   0  0  0  0  0  0  0  0  0  0  0  0
    0.3452    3.6484   -4.9226 N   0  0  0  0  0  0  0  0  0  0  0  0
    2.8272    0.7510   -5.9110 S   0  0  0  0  0  0  0  0  0  0  0  0
    2.7811   -0.3084   -7.4398 C   0  0  0  0  0  0  0  0  0  0  0  0
    2.1142    1.9840   -6.2586 O   0  0  0  0  0  0  0  0  0  0  0  0
    4.2046    0.7806   -5.4542 O   0  0  0  0  0  0  0  0  0  0  0  0
    1.9569   -0.1238   -4.9303 O   0  0  0  0  0  0  0  0  0  0  0  0
    1.5089   -0.5108   -7.8020 F   0  0  0  0  0  0  0  0  0  0  0  0
    3.4245    0.3195   -8.4253 F   0  0  0  0  0  0  0  0  0  0  0  0
    3.3644   -1.4819   -7.2042 F   0  0  0  0  0  0  0  0  0  0  0  0
  1  7  1  0  0  0  0
  1  2  1  0  0  0  0
  3 14  1  0  0  0  0
  3  2  2  0  0  0  0
  4  3  1  0  0  0  0
  5  4  2  0  0  0  0
  5  6  1  0  0  0  0
  6  1  2  0  0  0  0
  8 20  1  0  0  0  0
  9  4  1  0  0  0  0
 10  5  1  0  0  0  0
 11  6  1  0  0  0  0
 11 13  2  0  0  0  0
 12 11  2  0  0  0  0
 14 15  1  0  0  0  0
 16 19  2  0  0  0  0
 16 20  1  0  0  0  0
 17 23  1  0  0  0  0
 17 16  1  0  0  0  0
 18 16  2  0  0  0  0
 21 17  1  0  0  0  0
 22 17  1  0  0  0  0
M  RAD  3   2   2  14   2  15   3
M  END
