Coordinates from ORCA-job p-NO2-Ph-N2-X-OTf-B3LYPG-6-31G_dp-scan-d09-49-n400
 OpenBabel08281820583D

 23 22  0  0  0  0  0  0  0  0999 V2000
   -2.5842   -0.6908   -5.7216 C   0  0  0  0  0  0  0  0  0  0  0  0
   -1.5796   -0.0002   -6.3865 C   0  0  0  0  0  0  0  0  0  0  0  0
   -1.2295    1.2669   -5.8977 C   0  0  0  0  0  0  0  0  0  0  0  0
   -1.8398    1.8687   -4.7923 C   0  0  0  0  0  0  0  0  0  0  0  0
   -2.8281    1.1556   -4.1253 C   0  0  0  0  0  0  0  0  0  0  0  0
   -3.1823   -0.1036   -4.6067 C   0  0  0  0  0  0  0  0  0  0  0  0
   -2.9003   -1.6743   -6.0436 H   0  0  0  0  0  0  0  0  0  0  0  0
   -1.0689   -0.4123   -7.2474 H   0  0  0  0  0  0  0  0  0  0  0  0
   -1.5325    2.8536   -4.4625 H   0  0  0  0  0  0  0  0  0  0  0  0
   -3.3285    1.5557   -3.2533 H   0  0  0  0  0  0  0  0  0  0  0  0
   -4.2522   -0.8501   -3.9035 N   0  0  0  0  0  0  0  0  0  0  0  0
   -4.7558   -0.3132   -2.9216 O   0  0  0  0  0  0  0  0  0  0  0  0
   -4.5590   -1.9473   -4.3579 O   0  0  0  0  0  0  0  0  0  0  0  0
   -0.2510    1.9864   -6.5845 N   0  0  0  0  0  0  0  0  0  0  0  0
    0.6539    2.1511   -7.2426 N   0  0  0  0  0  0  0  0  0  0  0  0
    2.2558   -0.2211   -6.3412 S   0  0  0  0  0  0  0  0  0  0  0  0
    3.7376    0.8988   -6.2860 C   0  0  0  0  0  0  0  0  0  0  0  0
    1.5548    0.2380   -7.6193 O   0  0  0  0  0  0  0  0  0  0  0  0
    1.4695    0.1522   -5.1466 O   0  0  0  0  0  0  0  0  0  0  0  0
    2.7966   -1.5769   -6.4352 O   0  0  0  0  0  0  0  0  0  0  0  0
    4.5004    0.7335   -7.3688 F   0  0  0  0  0  0  0  0  0  0  0  0
    3.3353    2.1852   -6.2387 F   0  0  0  0  0  0  0  0  0  0  0  0
    4.4672    0.6453   -5.1955 F   0  0  0  0  0  0  0  0  0  0  0  0
  1  6  2  0  0  0  0
  2  3  2  0  0  0  0
  2  1  1  0  0  0  0
  3  4  1  0  0  0  0
  4  9  1  0  0  0  0
  4  5  2  0  0  0  0
  5 10  1  0  0  0  0
  6  5  1  0  0  0  0
  6 11  1  0  0  0  0
  7  1  1  0  0  0  0
  8  2  1  0  0  0  0
 11 12  2  0  0  0  0
 13 11  2  0  0  0  0
 14  3  1  0  0  0  0
 15 14  1  0  0  0  0
 16 17  1  0  0  0  0
 16 19  1  0  0  0  0
 17 22  1  0  0  0  0
 17 23  1  0  0  0  0
 18 16  2  0  0  0  0
 20 16  2  0  0  0  0
 21 17  1  0  0  0  0
M  RAD  3  14   2  15   3  19   2
M  END
