Coordinates from ORCA-job p-NO2-Ph-N2-X-OTf-B3LYPG-6-31G_dp-scan-d09-49-n400
 OpenBabel08281820583D

 23 22  0  0  0  0  0  0  0  0999 V2000
   -2.5714   -0.7797   -5.5354 C   0  0  0  0  0  0  0  0  0  0  0  0
   -1.6472   -0.2887   -6.4482 C   0  0  0  0  0  0  0  0  0  0  0  0
   -1.1318    0.9932   -6.2216 C   0  0  0  0  0  0  0  0  0  0  0  0
   -1.4740    1.7870   -5.1175 C   0  0  0  0  0  0  0  0  0  0  0  0
   -2.3842    1.2695   -4.2049 C   0  0  0  0  0  0  0  0  0  0  0  0
   -2.9203    0.0043   -4.4364 C   0  0  0  0  0  0  0  0  0  0  0  0
   -3.0100   -1.7622   -5.6526 H   0  0  0  0  0  0  0  0  0  0  0  0
   -1.3048   -0.8724   -7.2918 H   0  0  0  0  0  0  0  0  0  0  0  0
   -1.0271    2.7639   -4.9789 H   0  0  0  0  0  0  0  0  0  0  0  0
   -2.6848    1.8276   -3.3274 H   0  0  0  0  0  0  0  0  0  0  0  0
   -3.9026   -0.5325   -3.4669 N   0  0  0  0  0  0  0  0  0  0  0  0
   -4.1822    0.1755   -2.5041 O   0  0  0  0  0  0  0  0  0  0  0  0
   -4.3686   -1.6430   -3.7002 O   0  0  0  0  0  0  0  0  0  0  0  0
   -0.2541    1.5495   -7.1491 N   0  0  0  0  0  0  0  0  0  0  0  0
    0.3301    2.1749   -7.8713 N   0  0  0  0  0  0  0  0  0  0  0  0
    2.5039    0.0046   -7.1621 S   0  0  0  0  0  0  0  0  0  0  0  0
    2.8827    0.7327   -5.4949 C   0  0  0  0  0  0  0  0  0  0  0  0
    2.4894    1.2070   -8.0481 O   0  0  0  0  0  0  0  0  0  0  0  0
    1.1209   -0.5254   -6.9469 O   0  0  0  0  0  0  0  0  0  0  0  0
    3.5525   -0.9807   -7.4108 O   0  0  0  0  0  0  0  0  0  0  0  0
    4.0501    1.3773   -5.4932 F   0  0  0  0  0  0  0  0  0  0  0  0
    1.9092    1.6274   -5.1692 F   0  0  0  0  0  0  0  0  0  0  0  0
    2.9037   -0.2085   -4.5465 F   0  0  0  0  0  0  0  0  0  0  0  0
  1  6  2  0  0  0  0
  2  3  2  0  0  0  0
  2  1  1  0  0  0  0
  3  4  1  0  0  0  0
  4  9  1  0  0  0  0
  4  5  2  0  0  0  0
  5 10  1  0  0  0  0
  6  5  1  0  0  0  0
  6 11  1  0  0  0  0
  7  1  1  0  0  0  0
  8  2  1  0  0  0  0
 11 12  2  0  0  0  0
 13 11  2  0  0  0  0
 14  3  1  0  0  0  0
 15 14  1  0  0  0  0
 16 19  1  0  0  0  0
 16 17  1  0  0  0  0
 17 21  1  0  0  0  0
 17 22  1  0  0  0  0
 17 23  1  0  0  0  0
 18 16  2  0  0  0  0
 20 16  2  0  0  0  0
M  RAD  3  14   2  15   3  19   2
M  END
