Coordinates from ORCA-job p-NO2-Ph-N2-X-OTf-B3LYPG-6-31G_dp-scan-d09-49-n400
 OpenBabel08281820573D

 23 22  0  0  0  0  0  0  0  0999 V2000
   -2.1346   -0.7414   -5.1869 C   0  0  0  0  0  0  0  0  0  0  0  0
   -1.0943    0.1223   -5.5188 C   0  0  0  0  0  0  0  0  0  0  0  0
   -1.3235    1.4968   -5.3466 C   0  0  0  0  0  0  0  0  0  0  0  0
   -2.5262    2.0285   -4.8598 C   0  0  0  0  0  0  0  0  0  0  0  0
   -3.5547    1.1516   -4.5443 C   0  0  0  0  0  0  0  0  0  0  0  0
   -3.3348   -0.2150   -4.7146 C   0  0  0  0  0  0  0  0  0  0  0  0
   -2.0203   -1.8133   -5.2917 H   0  0  0  0  0  0  0  0  0  0  0  0
   -0.1434   -0.2565   -5.8821 H   0  0  0  0  0  0  0  0  0  0  0  0
   -2.6408    3.0997   -4.7391 H   0  0  0  0  0  0  0  0  0  0  0  0
   -4.5081    1.4999   -4.1692 H   0  0  0  0  0  0  0  0  0  0  0  0
   -4.4342   -1.1507   -4.3716 N   0  0  0  0  0  0  0  0  0  0  0  0
   -5.4770   -0.6562   -3.9532 O   0  0  0  0  0  0  0  0  0  0  0  0
   -4.2214   -2.3469   -4.5322 O   0  0  0  0  0  0  0  0  0  0  0  0
   -0.3071    2.4115   -5.6515 N   0  0  0  0  0  0  0  0  0  0  0  0
    0.6899    2.7455   -6.0768 N   0  0  0  0  0  0  0  0  0  0  0  0
    2.4485    0.3778   -6.1294 S   0  0  0  0  0  0  0  0  0  0  0  0
    4.0058    0.2390   -7.1347 C   0  0  0  0  0  0  0  0  0  0  0  0
    1.5042    1.0999   -7.0903 O   0  0  0  0  0  0  0  0  0  0  0  0
    2.7831    1.2009   -4.9565 O   0  0  0  0  0  0  0  0  0  0  0  0
    2.0027   -1.0067   -5.8923 O   0  0  0  0  0  0  0  0  0  0  0  0
    3.7701   -0.4478   -8.2570 F   0  0  0  0  0  0  0  0  0  0  0  0
    4.4527    1.4577   -7.4564 F   0  0  0  0  0  0  0  0  0  0  0  0
    4.9426   -0.3957   -6.4232 F   0  0  0  0  0  0  0  0  0  0  0  0
  1  6  2  0  0  0  0
  2  3  2  0  0  0  0
  2  1  1  0  0  0  0
  3  4  1  0  0  0  0
  4  9  1  0  0  0  0
  4  5  2  0  0  0  0
  5 10  1  0  0  0  0
  6  5  1  0  0  0  0
  6 11  1  0  0  0  0
  7  1  1  0  0  0  0
  8  2  1  0  0  0  0
 11 12  2  0  0  0  0
 13 11  2  0  0  0  0
 14  3  1  0  0  0  0
 15 14  1  0  0  0  0
 16 20  2  0  0  0  0
 16 19  1  0  0  0  0
 17 23  1  0  0  0  0
 17 16  1  0  0  0  0
 18 16  2  0  0  0  0
 21 17  1  0  0  0  0
 22 17  1  0  0  0  0
M  RAD  3  14   2  15   3  19   2
M  END
