Coordinates from ORCA-job p-NO2-Ph-N2-X-OTf-B3LYPG-6-31G_dp-scan-d09-49-n400
 OpenBabel08281820573D

 23 22  0  0  0  0  0  0  0  0999 V2000
   -1.6355   -0.5677   -4.9565 C   0  0  0  0  0  0  0  0  0  0  0  0
   -0.6630    0.4646   -4.9421 C   0  0  0  0  0  0  0  0  0  0  0  0
   -1.2718    1.7281   -4.9677 C   0  0  0  0  0  0  0  0  0  0  0  0
   -2.6491    2.0644   -5.0035 C   0  0  0  0  0  0  0  0  0  0  0  0
   -3.5307    1.0068   -5.0167 C   0  0  0  0  0  0  0  0  0  0  0  0
   -2.9954   -0.2941   -4.9915 C   0  0  0  0  0  0  0  0  0  0  0  0
   -1.3276   -1.6084   -4.9409 H   0  0  0  0  0  0  0  0  0  0  0  0
    0.9862    0.1252   -4.9497 H   0  0  0  0  0  0  0  0  0  0  0  0
   -2.9914    3.0942   -5.0221 H   0  0  0  0  0  0  0  0  0  0  0  0
   -4.6030    1.1485   -5.0457 H   0  0  0  0  0  0  0  0  0  0  0  0
   -3.9605   -1.4257   -5.0043 N   0  0  0  0  0  0  0  0  0  0  0  0
   -5.1567   -1.1433   -5.0371 O   0  0  0  0  0  0  0  0  0  0  0  0
   -3.5012   -2.5621   -4.9812 O   0  0  0  0  0  0  0  0  0  0  0  0
   -0.3894    2.8108   -4.9490 N   0  0  0  0  0  0  0  0  0  0  0  0
    0.3468    3.6463   -4.9331 N   0  0  0  0  0  0  0  0  0  0  0  0
    2.8215    0.7476   -5.9087 S   0  0  0  0  0  0  0  0  0  0  0  0
    2.7961   -0.3050   -7.4424 C   0  0  0  0  0  0  0  0  0  0  0  0
    2.1096    1.9806   -6.2606 O   0  0  0  0  0  0  0  0  0  0  0  0
    4.1945    0.7811   -5.4385 O   0  0  0  0  0  0  0  0  0  0  0  0
    1.9425   -0.1317   -4.9427 O   0  0  0  0  0  0  0  0  0  0  0  0
    1.5288   -0.5074   -7.8222 F   0  0  0  0  0  0  0  0  0  0  0  0
    3.4514    0.3276   -8.4172 F   0  0  0  0  0  0  0  0  0  0  0  0
    3.3775   -1.4792   -7.2048 F   0  0  0  0  0  0  0  0  0  0  0  0
  1  2  1  0  0  0  0
  1  7  1  0  0  0  0
  3 14  1  0  0  0  0
  3  2  2  0  0  0  0
  4  3  1  0  0  0  0
  5  4  2  0  0  0  0
  5  6  1  0  0  0  0
  6  1  2  0  0  0  0
  8 20  1  0  0  0  0
  9  4  1  0  0  0  0
 10  5  1  0  0  0  0
 11  6  1  0  0  0  0
 11 13  2  0  0  0  0
 12 11  2  0  0  0  0
 14 15  1  0  0  0  0
 16 19  2  0  0  0  0
 16 20  1  0  0  0  0
 17 23  1  0  0  0  0
 17 16  1  0  0  0  0
 18 16  2  0  0  0  0
 21 17  1  0  0  0  0
 22 17  1  0  0  0  0
M  RAD  3   2   2  14   2  15   3
M  END
