Coordinates from ORCA-job p-NO2-Ph-N2-X-OTf-B3LYPG-6-31G_dp-scan-d09-49-n400
 OpenBabel08281820583D

 23 22  0  0  0  0  0  0  0  0999 V2000
   -2.7198   -0.6676   -5.7977 C   0  0  0  0  0  0  0  0  0  0  0  0
   -1.7321   -0.0158   -6.5234 C   0  0  0  0  0  0  0  0  0  0  0  0
   -1.2331    1.1880   -6.0055 C   0  0  0  0  0  0  0  0  0  0  0  0
   -1.6813    1.7664   -4.8129 C   0  0  0  0  0  0  0  0  0  0  0  0
   -2.6568    1.0916   -4.0911 C   0  0  0  0  0  0  0  0  0  0  0  0
   -3.1591   -0.1055   -4.5994 C   0  0  0  0  0  0  0  0  0  0  0  0
   -3.1435   -1.6039   -6.1371 H   0  0  0  0  0  0  0  0  0  0  0  0
   -1.3449   -0.4172   -7.4514 H   0  0  0  0  0  0  0  0  0  0  0  0
   -1.2586    2.6987   -4.4593 H   0  0  0  0  0  0  0  0  0  0  0  0
   -3.0348    1.4745   -3.1525 H   0  0  0  0  0  0  0  0  0  0  0  0
   -4.2131   -0.8093   -3.8339 N   0  0  0  0  0  0  0  0  0  0  0  0
   -4.5798   -0.2921   -2.7829 O   0  0  0  0  0  0  0  0  0  0  0  0
   -4.6463   -1.8542   -4.3088 O   0  0  0  0  0  0  0  0  0  0  0  0
   -0.2714    1.8619   -6.7513 N   0  0  0  0  0  0  0  0  0  0  0  0
    0.5990    2.0901   -7.4285 N   0  0  0  0  0  0  0  0  0  0  0  0
    2.2672   -0.2001   -6.3431 S   0  0  0  0  0  0  0  0  0  0  0  0
    3.6852    0.9832   -6.1478 C   0  0  0  0  0  0  0  0  0  0  0  0
    1.6987    0.2020   -7.6930 O   0  0  0  0  0  0  0  0  0  0  0  0
    1.3435    0.1711   -5.2451 O   0  0  0  0  0  0  0  0  0  0  0  0
    2.8648   -1.5349   -6.3246 O   0  0  0  0  0  0  0  0  0  0  0  0
    4.5759    0.8296   -7.1306 F   0  0  0  0  0  0  0  0  0  0  0  0
    3.2237    2.2515   -6.1848 F   0  0  0  0  0  0  0  0  0  0  0  0
    4.2957    0.7930   -4.9738 F   0  0  0  0  0  0  0  0  0  0  0  0
  1  6  2  0  0  0  0
  2  3  2  0  0  0  0
  2  1  1  0  0  0  0
  3  4  1  0  0  0  0
  4  9  1  0  0  0  0
  4  5  2  0  0  0  0
  5 10  1  0  0  0  0
  6  5  1  0  0  0  0
  6 11  1  0  0  0  0
  7  1  1  0  0  0  0
  8  2  1  0  0  0  0
 11 12  2  0  0  0  0
 13 11  2  0  0  0  0
 14  3  1  0  0  0  0
 15 14  1  0  0  0  0
 16 20  2  0  0  0  0
 16 17  1  0  0  0  0
 16 19  1  0  0  0  0
 17 23  1  0  0  0  0
 18 16  2  0  0  0  0
 21 17  1  0  0  0  0
 22 17  1  0  0  0  0
M  RAD  3  14   2  15   3  19   2
M  END
