Coordinates from ORCA-job p-NO2-Ph-N2-X-OTf-B3LYPG-6-31G_dp-scan-d09-49-n400
 OpenBabel08281820583D

 23 22  0  0  0  0  0  0  0  0999 V2000
   -2.5977   -0.6880   -5.7319 C   0  0  0  0  0  0  0  0  0  0  0  0
   -1.5950   -0.0004   -6.4027 C   0  0  0  0  0  0  0  0  0  0  0  0
   -1.2298    1.2605   -5.9089 C   0  0  0  0  0  0  0  0  0  0  0  0
   -1.8240    1.8593   -4.7932 C   0  0  0  0  0  0  0  0  0  0  0  0
   -2.8104    1.1490   -4.1206 C   0  0  0  0  0  0  0  0  0  0  0  0
   -3.1795   -0.1041   -4.6066 C   0  0  0  0  0  0  0  0  0  0  0  0
   -2.9246   -1.6669   -6.0572 H   0  0  0  0  0  0  0  0  0  0  0  0
   -1.0969   -0.4109   -7.2717 H   0  0  0  0  0  0  0  0  0  0  0  0
   -1.5055    2.8394   -4.4596 H   0  0  0  0  0  0  0  0  0  0  0  0
   -3.2982    1.5468   -3.2404 H   0  0  0  0  0  0  0  0  0  0  0  0
   -4.2474   -0.8473   -3.8973 N   0  0  0  0  0  0  0  0  0  0  0  0
   -4.7356   -0.3139   -2.9057 O   0  0  0  0  0  0  0  0  0  0  0  0
   -4.5683   -1.9384   -4.3566 O   0  0  0  0  0  0  0  0  0  0  0  0
   -0.2532    1.9763   -6.6016 N   0  0  0  0  0  0  0  0  0  0  0  0
    0.6495    2.1432   -7.2615 N   0  0  0  0  0  0  0  0  0  0  0  0
    2.2557   -0.2193   -6.3368 S   0  0  0  0  0  0  0  0  0  0  0  0
    3.7322    0.9070   -6.2739 C   0  0  0  0  0  0  0  0  0  0  0  0
    1.5642    0.2304   -7.6227 O   0  0  0  0  0  0  0  0  0  0  0  0
    1.4580    0.1573   -5.1505 O   0  0  0  0  0  0  0  0  0  0  0  0
    2.8031   -1.5733   -6.4179 O   0  0  0  0  0  0  0  0  0  0  0  0
    4.5070    0.7381   -7.3475 F   0  0  0  0  0  0  0  0  0  0  0  0
    3.3239    2.1921   -6.2392 F   0  0  0  0  0  0  0  0  0  0  0  0
    4.4517    0.6642   -5.1742 F   0  0  0  0  0  0  0  0  0  0  0  0
  1  6  2  0  0  0  0
  2  3  2  0  0  0  0
  2  1  1  0  0  0  0
  3  4  1  0  0  0  0
  4  9  1  0  0  0  0
  4  5  2  0  0  0  0
  5 10  1  0  0  0  0
  6  5  1  0  0  0  0
  6 11  1  0  0  0  0
  7  1  1  0  0  0  0
  8  2  1  0  0  0  0
 11 12  2  0  0  0  0
 13 11  2  0  0  0  0
 14  3  1  0  0  0  0
 15 14  1  0  0  0  0
 16 17  1  0  0  0  0
 16 19  1  0  0  0  0
 17 22  1  0  0  0  0
 17 23  1  0  0  0  0
 18 16  2  0  0  0  0
 20 16  2  0  0  0  0
 21 17  1  0  0  0  0
M  RAD  3  14   2  15   3  19   2
M  END
