Coordinates from ORCA-job p-NO2-Ph-N2-X-OTf-B3LYPG-6-31G_dp-scan-d09-49-n400
 OpenBabel08281820573D

 23 22  0  0  0  0  0  0  0  0999 V2000
   -1.6772   -0.6078   -4.9907 C   0  0  0  0  0  0  0  0  0  0  0  0
   -0.7007    0.4045   -5.0150 C   0  0  0  0  0  0  0  0  0  0  0  0
   -1.2421    1.6974   -4.9904 C   0  0  0  0  0  0  0  0  0  0  0  0
   -2.6083    2.0572   -4.9429 C   0  0  0  0  0  0  0  0  0  0  0  0
   -3.5203    1.0218   -4.9203 C   0  0  0  0  0  0  0  0  0  0  0  0
   -3.0290   -0.2923   -4.9431 C   0  0  0  0  0  0  0  0  0  0  0  0
   -1.3827   -1.6513   -5.0099 H   0  0  0  0  0  0  0  0  0  0  0  0
    0.5811    0.1319   -5.0896 H   0  0  0  0  0  0  0  0  0  0  0  0
   -2.9236    3.0950   -4.9289 H   0  0  0  0  0  0  0  0  0  0  0  0
   -4.5876    1.1970   -4.8856 H   0  0  0  0  0  0  0  0  0  0  0  0
   -4.0243   -1.3969   -4.9139 N   0  0  0  0  0  0  0  0  0  0  0  0
   -5.2105   -1.0792   -4.8797 O   0  0  0  0  0  0  0  0  0  0  0  0
   -3.5923   -2.5433   -4.9256 O   0  0  0  0  0  0  0  0  0  0  0  0
   -0.3289    2.7507   -5.0027 N   0  0  0  0  0  0  0  0  0  0  0  0
    0.4413    3.5534   -5.0227 N   0  0  0  0  0  0  0  0  0  0  0  0
    2.6743    0.7388   -5.9349 S   0  0  0  0  0  0  0  0  0  0  0  0
    3.0331   -0.2792   -7.4462 C   0  0  0  0  0  0  0  0  0  0  0  0
    1.9199    1.9073   -6.4411 O   0  0  0  0  0  0  0  0  0  0  0  0
    3.9586    0.9697   -5.2823 O   0  0  0  0  0  0  0  0  0  0  0  0
    1.7463   -0.1918   -5.1480 O   0  0  0  0  0  0  0  0  0  0  0  0
    1.8865   -0.5915   -8.0686 F   0  0  0  0  0  0  0  0  0  0  0  0
    3.8038    0.4175   -8.2870 F   0  0  0  0  0  0  0  0  0  0  0  0
    3.6620   -1.4078   -7.1091 F   0  0  0  0  0  0  0  0  0  0  0  0
  1  6  1  0  0  0  0
  2  1  2  0  0  0  0
  2  3  1  0  0  0  0
  3  4  2  0  0  0  0
  4  9  1  0  0  0  0
  4  5  1  0  0  0  0
  5 10  1  0  0  0  0
  6  5  2  0  0  0  0
  6 11  1  0  0  0  0
  7  1  1  0  0  0  0
 11 12  2  0  0  0  0
 13 11  2  0  0  0  0
 14  3  1  0  0  0  0
 15 14  1  0  0  0  0
 16 19  2  0  0  0  0
 16 20  1  0  0  0  0
 17 23  1  0  0  0  0
 17 16  1  0  0  0  0
 18 16  2  0  0  0  0
 20  8  1  0  0  0  0
 21 17  1  0  0  0  0
 22 17  1  0  0  0  0
M  RAD  3   2   2  14   2  15   3
M  END
