Coordinates from ORCA-job p-NO2-Ph-N2-X-OTf-B3LYPG-6-31G_dp-scan-d09-49-n400
 OpenBabel08281820573D

 23 22  0  0  0  0  0  0  0  0999 V2000
   -2.4303   -0.7124   -5.5975 C   0  0  0  0  0  0  0  0  0  0  0  0
   -1.4093    0.0244   -6.1847 C   0  0  0  0  0  0  0  0  0  0  0  0
   -1.2390    1.3502   -5.7587 C   0  0  0  0  0  0  0  0  0  0  0  0
   -2.0371    1.9607   -4.7850 C   0  0  0  0  0  0  0  0  0  0  0  0
   -3.0421    1.2050   -4.1941 C   0  0  0  0  0  0  0  0  0  0  0  0
   -3.2189   -0.1114   -4.6170 C   0  0  0  0  0  0  0  0  0  0  0  0
   -2.6160   -1.7409   -5.8789 H   0  0  0  0  0  0  0  0  0  0  0  0
   -0.7515   -0.3879   -6.9405 H   0  0  0  0  0  0  0  0  0  0  0  0
   -1.8608    2.9905   -4.4979 H   0  0  0  0  0  0  0  0  0  0  0  0
   -3.6870    1.6131   -3.4265 H   0  0  0  0  0  0  0  0  0  0  0  0
   -4.3044   -0.9089   -3.9957 N   0  0  0  0  0  0  0  0  0  0  0  0
   -4.9734   -0.3600   -3.1258 O   0  0  0  0  0  0  0  0  0  0  0  0
   -4.4559   -2.0566   -4.4002 O   0  0  0  0  0  0  0  0  0  0  0  0
   -0.2400    2.1216   -6.3600 N   0  0  0  0  0  0  0  0  0  0  0  0
    0.6964    2.2727   -6.9824 N   0  0  0  0  0  0  0  0  0  0  0  0
    2.2465   -0.1903   -6.3491 S   0  0  0  0  0  0  0  0  0  0  0  0
    3.8312    0.7721   -6.4675 C   0  0  0  0  0  0  0  0  0  0  0  0
    1.4452    0.3744   -7.5294 O   0  0  0  0  0  0  0  0  0  0  0  0
    1.6486    0.2202   -5.0646 O   0  0  0  0  0  0  0  0  0  0  0  0
    2.6146   -1.5922   -6.5454 O   0  0  0  0  0  0  0  0  0  0  0  0
    4.4402    0.5383   -7.6325 F   0  0  0  0  0  0  0  0  0  0  0  0
    3.5709    2.0891   -6.3751 F   0  0  0  0  0  0  0  0  0  0  0  0
    4.6513    0.4294   -5.4697 F   0  0  0  0  0  0  0  0  0  0  0  0
  1  6  2  0  0  0  0
  2  3  2  0  0  0  0
  2  1  1  0  0  0  0
  3  4  1  0  0  0  0
  4  9  1  0  0  0  0
  4  5  2  0  0  0  0
  5 10  1  0  0  0  0
  6  5  1  0  0  0  0
  6 11  1  0  0  0  0
  7  1  1  0  0  0  0
  8  2  1  0  0  0  0
 11 12  2  0  0  0  0
 13 11  2  0  0  0  0
 14  3  1  0  0  0  0
 15 14  2  0  0  0  0
 16 19  1  0  0  0  0
 17 22  1  0  0  0  0
 17 16  1  0  0  0  0
 17 23  1  0  0  0  0
 18 16  2  0  0  0  0
 20 16  2  0  0  0  0
 21 17  1  0  0  0  0
M  RAD  2  15   2  19   2
M  END
