Coordinates from ORCA-job p-NO2-Ph-N2-X-OTf-B3LYPG-6-31G_dp-scan-d09-49-n400
 OpenBabel08281820583D

 23 22  0  0  0  0  0  0  0  0999 V2000
   -2.5707   -0.6933   -5.7113 C   0  0  0  0  0  0  0  0  0  0  0  0
   -1.5645    0.0004   -6.3705 C   0  0  0  0  0  0  0  0  0  0  0  0
   -1.2292    1.2734   -5.8869 C   0  0  0  0  0  0  0  0  0  0  0  0
   -1.8553    1.8777   -4.7918 C   0  0  0  0  0  0  0  0  0  0  0  0
   -2.8452    1.1618   -4.1302 C   0  0  0  0  0  0  0  0  0  0  0  0
   -3.1848   -0.1032   -4.6068 C   0  0  0  0  0  0  0  0  0  0  0  0
   -2.8761   -1.6814   -6.0300 H   0  0  0  0  0  0  0  0  0  0  0  0
   -1.0413   -0.4131   -7.2233 H   0  0  0  0  0  0  0  0  0  0  0  0
   -1.5589    2.8672   -4.4656 H   0  0  0  0  0  0  0  0  0  0  0  0
   -3.3578    1.5640   -3.2662 H   0  0  0  0  0  0  0  0  0  0  0  0
   -4.2565   -0.8531   -3.9096 N   0  0  0  0  0  0  0  0  0  0  0  0
   -4.7750   -0.3130   -2.9373 O   0  0  0  0  0  0  0  0  0  0  0  0
   -4.5496   -1.9560   -4.3591 O   0  0  0  0  0  0  0  0  0  0  0  0
   -0.2489    1.9965   -6.5679 N   0  0  0  0  0  0  0  0  0  0  0  0
    0.6580    2.1592   -7.2242 N   0  0  0  0  0  0  0  0  0  0  0  0
    2.2553   -0.2227   -6.3455 S   0  0  0  0  0  0  0  0  0  0  0  0
    3.7426    0.8904   -6.2978 C   0  0  0  0  0  0  0  0  0  0  0  0
    1.5455    0.2457   -7.6158 O   0  0  0  0  0  0  0  0  0  0  0  0
    1.4805    0.1479   -5.1429 O   0  0  0  0  0  0  0  0  0  0  0  0
    2.7891   -1.5804   -6.4517 O   0  0  0  0  0  0  0  0  0  0  0  0
    4.4940    0.7282   -7.3891 F   0  0  0  0  0  0  0  0  0  0  0  0
    3.3468    2.1781   -6.2387 F   0  0  0  0  0  0  0  0  0  0  0  0
    4.4816    0.6266   -5.2161 F   0  0  0  0  0  0  0  0  0  0  0  0
  1  6  2  0  0  0  0
  2  3  2  0  0  0  0
  2  1  1  0  0  0  0
  3  4  1  0  0  0  0
  4  9  1  0  0  0  0
  4  5  2  0  0  0  0
  5 10  1  0  0  0  0
  6  5  1  0  0  0  0
  6 11  1  0  0  0  0
  7  1  1  0  0  0  0
  8  2  1  0  0  0  0
 11 12  2  0  0  0  0
 13 11  2  0  0  0  0
 14  3  1  0  0  0  0
 15 14  1  0  0  0  0
 16 17  1  0  0  0  0
 16 19  1  0  0  0  0
 17 22  1  0  0  0  0
 17 23  1  0  0  0  0
 18 16  2  0  0  0  0
 20 16  2  0  0  0  0
 21 17  1  0  0  0  0
M  RAD  3  14   2  15   3  19   2
M  END
