Coordinates from ORCA-job p-NO2-Ph-N2-X-OTf-B3LYPG-6-31G_dp-scan-d09-49-n400
 OpenBabel08281820583D

 23 22  0  0  0  0  0  0  0  0999 V2000
   -2.5473   -0.6976   -5.6925 C   0  0  0  0  0  0  0  0  0  0  0  0
   -1.5376    0.0015   -6.3407 C   0  0  0  0  0  0  0  0  0  0  0  0
   -1.2288    1.2848   -5.8665 C   0  0  0  0  0  0  0  0  0  0  0  0
   -1.8834    1.8933   -4.7905 C   0  0  0  0  0  0  0  0  0  0  0  0
   -2.8768    1.1725   -4.1394 C   0  0  0  0  0  0  0  0  0  0  0  0
   -3.1903   -0.1024   -4.6072 C   0  0  0  0  0  0  0  0  0  0  0  0
   -2.8337   -1.6933   -6.0049 H   0  0  0  0  0  0  0  0  0  0  0  0
   -0.9918   -0.4139   -7.1783 H   0  0  0  0  0  0  0  0  0  0  0  0
   -1.6064    2.8907   -4.4711 H   0  0  0  0  0  0  0  0  0  0  0  0
   -3.4116    1.5782   -3.2905 H   0  0  0  0  0  0  0  0  0  0  0  0
   -4.2655   -0.8584   -3.9215 N   0  0  0  0  0  0  0  0  0  0  0  0
   -4.8103   -0.3134   -2.9665 O   0  0  0  0  0  0  0  0  0  0  0  0
   -4.5348   -1.9707   -4.3627 O   0  0  0  0  0  0  0  0  0  0  0  0
   -0.2449    2.0139   -6.5365 N   0  0  0  0  0  0  0  0  0  0  0  0
    0.6657    2.1732   -7.1893 N   0  0  0  0  0  0  0  0  0  0  0  0
    2.2559   -0.2252   -6.3521 S   0  0  0  0  0  0  0  0  0  0  0  0
    3.7527    0.8757   -6.3208 C   0  0  0  0  0  0  0  0  0  0  0  0
    1.5289    0.2593   -7.6078 O   0  0  0  0  0  0  0  0  0  0  0  0
    1.5025    0.1409   -5.1349 O   0  0  0  0  0  0  0  0  0  0  0  0
    2.7765   -1.5862   -6.4797 O   0  0  0  0  0  0  0  0  0  0  0  0
    4.4818    0.7184   -7.4278 F   0  0  0  0  0  0  0  0  0  0  0  0
    3.3689    2.1656   -6.2410 F   0  0  0  0  0  0  0  0  0  0  0  0
    4.5096    0.5942   -5.2561 F   0  0  0  0  0  0  0  0  0  0  0  0
  1  6  2  0  0  0  0
  2  3  2  0  0  0  0
  2  1  1  0  0  0  0
  3  4  1  0  0  0  0
  4  9  1  0  0  0  0
  4  5  2  0  0  0  0
  5 10  1  0  0  0  0
  6  5  1  0  0  0  0
  6 11  1  0  0  0  0
  7  1  1  0  0  0  0
  8  2  1  0  0  0  0
 11 12  2  0  0  0  0
 13 11  2  0  0  0  0
 14  3  1  0  0  0  0
 15 14  1  0  0  0  0
 16 17  1  0  0  0  0
 16 19  1  0  0  0  0
 17 22  1  0  0  0  0
 17 23  1  0  0  0  0
 18 16  2  0  0  0  0
 20 16  2  0  0  0  0
 21 17  1  0  0  0  0
M  RAD  3  14   2  15   3  19   2
M  END
