Coordinates from ORCA-job p-NO2-Ph-N2-X-OTf-B3LYPG-6-31G_dp-scan-d09-49-n400
 OpenBabel08281820583D

 23 22  0  0  0  0  0  0  0  0999 V2000
   -2.5308   -0.7001   -5.6798 C   0  0  0  0  0  0  0  0  0  0  0  0
   -1.5195    0.0032   -6.3211 C   0  0  0  0  0  0  0  0  0  0  0  0
   -1.2288    1.2931   -5.8536 C   0  0  0  0  0  0  0  0  0  0  0  0
   -1.9021    1.9038   -4.7905 C   0  0  0  0  0  0  0  0  0  0  0  0
   -2.8971    1.1792   -4.1460 C   0  0  0  0  0  0  0  0  0  0  0  0
   -3.1928   -0.1023   -4.6076 C   0  0  0  0  0  0  0  0  0  0  0  0
   -2.8041   -1.7009   -5.9878 H   0  0  0  0  0  0  0  0  0  0  0  0
   -0.9586   -0.4131   -7.1484 H   0  0  0  0  0  0  0  0  0  0  0  0
   -1.6383    2.9062   -4.4758 H   0  0  0  0  0  0  0  0  0  0  0  0
   -3.4463    1.5866   -3.3072 H   0  0  0  0  0  0  0  0  0  0  0  0
   -4.2696   -0.8628   -3.9292 N   0  0  0  0  0  0  0  0  0  0  0  0
   -4.8309   -0.3156   -2.9851 O   0  0  0  0  0  0  0  0  0  0  0  0
   -4.5232   -1.9809   -4.3648 O   0  0  0  0  0  0  0  0  0  0  0  0
   -0.2429    2.0267   -6.5163 N   0  0  0  0  0  0  0  0  0  0  0  0
    0.6702    2.1841   -7.1667 N   0  0  0  0  0  0  0  0  0  0  0  0
    2.2542   -0.2259   -6.3565 S   0  0  0  0  0  0  0  0  0  0  0  0
    3.7588    0.8647   -6.3353 C   0  0  0  0  0  0  0  0  0  0  0  0
    1.5177    0.2699   -7.6028 O   0  0  0  0  0  0  0  0  0  0  0  0
    1.5154    0.1384   -5.1303 O   0  0  0  0  0  0  0  0  0  0  0  0
    2.7636   -1.5898   -6.4977 O   0  0  0  0  0  0  0  0  0  0  0  0
    4.4747    0.7083   -7.4511 F   0  0  0  0  0  0  0  0  0  0  0  0
    3.3848    2.1566   -6.2442 F   0  0  0  0  0  0  0  0  0  0  0  0
    4.5251    0.5718   -5.2805 F   0  0  0  0  0  0  0  0  0  0  0  0
  1  6  2  0  0  0  0
  2  3  2  0  0  0  0
  2  1  1  0  0  0  0
  3  4  1  0  0  0  0
  4  9  1  0  0  0  0
  4  5  2  0  0  0  0
  5 10  1  0  0  0  0
  6  5  1  0  0  0  0
  6 11  1  0  0  0  0
  7  1  1  0  0  0  0
  8  2  1  0  0  0  0
 11 12  2  0  0  0  0
 13 11  2  0  0  0  0
 14  3  1  0  0  0  0
 15 14  1  0  0  0  0
 16 17  1  0  0  0  0
 16 19  1  0  0  0  0
 17 22  1  0  0  0  0
 17 23  1  0  0  0  0
 18 16  2  0  0  0  0
 20 16  2  0  0  0  0
 21 17  1  0  0  0  0
M  RAD  3  14   2  15   3  19   2
M  END
