Coordinates from ORCA-job p-NO2-Ph-N2-X-OTf-B3LYPG-6-31G_dp-scan-d09-49-n400
 OpenBabel08281820583D

 23 22  0  0  0  0  0  0  0  0999 V2000
   -2.4702   -0.7079   -5.6328 C   0  0  0  0  0  0  0  0  0  0  0  0
   -1.4542    0.0134   -6.2467 C   0  0  0  0  0  0  0  0  0  0  0  0
   -1.2321    1.3258   -5.8045 C   0  0  0  0  0  0  0  0  0  0  0  0
   -1.9753    1.9397   -4.7907 C   0  0  0  0  0  0  0  0  0  0  0  0
   -2.9749    1.1984   -4.1728 C   0  0  0  0  0  0  0  0  0  0  0  0
   -3.2030   -0.1050   -4.6108 C   0  0  0  0  0  0  0  0  0  0  0  0
   -2.6939   -1.7259   -5.9241 H   0  0  0  0  0  0  0  0  0  0  0  0
   -0.8382   -0.4027   -7.0344 H   0  0  0  0  0  0  0  0  0  0  0  0
   -1.7614    2.9593   -4.4934 H   0  0  0  0  0  0  0  0  0  0  0  0
   -3.5777    1.6086   -3.3729 H   0  0  0  0  0  0  0  0  0  0  0  0
   -4.2837   -0.8856   -3.9608 N   0  0  0  0  0  0  0  0  0  0  0  0
   -4.9041   -0.3354   -3.0563 O   0  0  0  0  0  0  0  0  0  0  0  0
   -4.4805   -2.0218   -4.3782 O   0  0  0  0  0  0  0  0  0  0  0  0
   -0.2395    2.0789   -6.4365 N   0  0  0  0  0  0  0  0  0  0  0  0
    0.6846    2.2322   -7.0743 N   0  0  0  0  0  0  0  0  0  0  0  0
    2.2456   -0.2161   -6.3636 S   0  0  0  0  0  0  0  0  0  0  0  0
    3.7902    0.8163   -6.3974 C   0  0  0  0  0  0  0  0  0  0  0  0
    1.4763    0.3230   -7.5741 O   0  0  0  0  0  0  0  0  0  0  0  0
    1.5720    0.1585   -5.1046 O   0  0  0  0  0  0  0  0  0  0  0  0
    2.6903   -1.5976   -6.5463 O   0  0  0  0  0  0  0  0  0  0  0  0
    4.4554    0.6367   -7.5408 F   0  0  0  0  0  0  0  0  0  0  0  0
    3.4692    2.1198   -6.2881 F   0  0  0  0  0  0  0  0  0  0  0  0
    4.5845    0.4883   -5.3741 F   0  0  0  0  0  0  0  0  0  0  0  0
  1  6  2  0  0  0  0
  2  3  2  0  0  0  0
  2  1  1  0  0  0  0
  3  4  1  0  0  0  0
  4  9  1  0  0  0  0
  4  5  2  0  0  0  0
  5 10  1  0  0  0  0
  6  5  1  0  0  0  0
  6 11  1  0  0  0  0
  7  1  1  0  0  0  0
  8  2  1  0  0  0  0
 11 12  2  0  0  0  0
 13 11  2  0  0  0  0
 14  3  1  0  0  0  0
 15 14  1  0  0  0  0
 16 19  1  0  0  0  0
 17 16  1  0  0  0  0
 17 22  1  0  0  0  0
 17 23  1  0  0  0  0
 18 16  2  0  0  0  0
 20 16  2  0  0  0  0
 21 17  1  0  0  0  0
M  RAD  3  14   2  15   3  19   2
M  END
