Coordinates from ORCA-job p-NO2-Ph-N2-X-OTf-B3LYPG-6-31G_dp-scan-d09-49-n400
 OpenBabel08281820573D

 23 22  0  0  0  0  0  0  0  0999 V2000
   -1.8172   -0.6657   -5.0307 C   0  0  0  0  0  0  0  0  0  0  0  0
   -0.8257    0.3161   -5.1198 C   0  0  0  0  0  0  0  0  0  0  0  0
   -1.2861    1.6384   -5.0518 C   0  0  0  0  0  0  0  0  0  0  0  0
   -2.6260    2.0379   -4.8954 C   0  0  0  0  0  0  0  0  0  0  0  0
   -3.5779    1.0368   -4.8140 C   0  0  0  0  0  0  0  0  0  0  0  0
   -3.1494   -0.2938   -4.8830 C   0  0  0  0  0  0  0  0  0  0  0  0
   -1.5570   -1.7167   -5.0750 H   0  0  0  0  0  0  0  0  0  0  0  0
    0.3001    0.0686   -5.2313 H   0  0  0  0  0  0  0  0  0  0  0  0
   -2.8978    3.0865   -4.8481 H   0  0  0  0  0  0  0  0  0  0  0  0
   -4.6310    1.2562   -4.6968 H   0  0  0  0  0  0  0  0  0  0  0  0
   -4.1813   -1.3591   -4.7876 N   0  0  0  0  0  0  0  0  0  0  0  0
   -5.3468   -0.9960   -4.6561 O   0  0  0  0  0  0  0  0  0  0  0  0
   -3.7947   -2.5201   -4.8469 O   0  0  0  0  0  0  0  0  0  0  0  0
   -0.3195    2.6407   -5.1404 N   0  0  0  0  0  0  0  0  0  0  0  0
    0.5886    3.2728   -5.3038 N   0  0  0  0  0  0  0  0  0  0  0  0
    2.6528    0.7580   -5.9711 S   0  0  0  0  0  0  0  0  0  0  0  0
    3.3573   -0.1855   -7.4090 C   0  0  0  0  0  0  0  0  0  0  0  0
    1.8813    1.8559   -6.6387 O   0  0  0  0  0  0  0  0  0  0  0  0
    3.7941    1.1688   -5.1529 O   0  0  0  0  0  0  0  0  0  0  0  0
    1.7254   -0.2387   -5.3307 O   0  0  0  0  0  0  0  0  0  0  0  0
    2.3704   -0.6184   -8.2068 F   0  0  0  0  0  0  0  0  0  0  0  0
    4.1718    0.6005   -8.1201 F   0  0  0  0  0  0  0  0  0  0  0  0
    4.0478   -1.2421   -6.9682 F   0  0  0  0  0  0  0  0  0  0  0  0
  1  6  2  0  0  0  0
  2  3  2  0  0  0  0
  2  1  1  0  0  0  0
  3  4  1  0  0  0  0
  4  9  1  0  0  0  0
  4  5  2  0  0  0  0
  5 10  1  0  0  0  0
  6  5  1  0  0  0  0
  6 11  1  0  0  0  0
  7  1  1  0  0  0  0
  8  2  1  0  0  0  0
 11 12  2  0  0  0  0
 13 11  2  0  0  0  0
 14  3  1  0  0  0  0
 15 14  1  0  0  0  0
 16 20  2  0  0  0  0
 16 19  1  0  0  0  0
 17 23  1  0  0  0  0
 17 16  1  0  0  0  0
 18 16  2  0  0  0  0
 21 17  1  0  0  0  0
 22 17  1  0  0  0  0
M  RAD  3  14   2  15   3  19   2
M  END
