Coordinates from ORCA-job p-NO2-Ph-N2-X-OTf-B3LYPG-6-31G_dp-scan-d09-49-n400
 OpenBabel08281820573D

 23 22  0  0  0  0  0  0  0  0999 V2000
   -1.8788   -0.6872   -5.0352 C   0  0  0  0  0  0  0  0  0  0  0  0
   -0.8731    0.2745   -5.1494 C   0  0  0  0  0  0  0  0  0  0  0  0
   -1.2952    1.6098   -5.0781 C   0  0  0  0  0  0  0  0  0  0  0  0
   -2.6225    2.0331   -4.8923 C   0  0  0  0  0  0  0  0  0  0  0  0
   -3.5955    1.0532   -4.7880 C   0  0  0  0  0  0  0  0  0  0  0  0
   -3.1997   -0.2859   -4.8611 C   0  0  0  0  0  0  0  0  0  0  0  0
   -1.6399   -1.7431   -5.0802 H   0  0  0  0  0  0  0  0  0  0  0  0
    0.2166    0.0050   -5.2754 H   0  0  0  0  0  0  0  0  0  0  0  0
   -2.8705    3.0873   -4.8414 H   0  0  0  0  0  0  0  0  0  0  0  0
   -4.6406    1.2972   -4.6487 H   0  0  0  0  0  0  0  0  0  0  0  0
   -4.2511   -1.3285   -4.7398 N   0  0  0  0  0  0  0  0  0  0  0  0
   -5.4055   -0.9405   -4.5846 O   0  0  0  0  0  0  0  0  0  0  0  0
   -3.8899   -2.4976   -4.8033 O   0  0  0  0  0  0  0  0  0  0  0  0
   -0.3128    2.5955   -5.1897 N   0  0  0  0  0  0  0  0  0  0  0  0
    0.6273    3.1693   -5.4027 N   0  0  0  0  0  0  0  0  0  0  0  0
    2.6203    0.7372   -5.9988 S   0  0  0  0  0  0  0  0  0  0  0  0
    3.5069   -0.1343   -7.3810 C   0  0  0  0  0  0  0  0  0  0  0  0
    1.7889    1.7528   -6.7376 O   0  0  0  0  0  0  0  0  0  0  0  0
    3.6601    1.2856   -5.1256 O   0  0  0  0  0  0  0  0  0  0  0  0
    1.7575   -0.3293   -5.4001 O   0  0  0  0  0  0  0  0  0  0  0  0
    2.6237   -0.6786   -8.2292 F   0  0  0  0  0  0  0  0  0  0  0  0
    4.2734    0.7305   -8.0528 F   0  0  0  0  0  0  0  0  0  0  0  0
    4.2796   -1.1051   -6.8829 F   0  0  0  0  0  0  0  0  0  0  0  0
  1  6  2  0  0  0  0
  2  3  2  0  0  0  0
  2  1  1  0  0  0  0
  3  4  1  0  0  0  0
  4  9  1  0  0  0  0
  4  5  2  0  0  0  0
  5 10  1  0  0  0  0
  6  5  1  0  0  0  0
  6 11  1  0  0  0  0
  7  1  1  0  0  0  0
  8  2  1  0  0  0  0
 11 12  2  0  0  0  0
 13 11  2  0  0  0  0
 14  3  1  0  0  0  0
 15 14  1  0  0  0  0
 16 20  2  0  0  0  0
 16 19  1  0  0  0  0
 17 23  1  0  0  0  0
 17 16  1  0  0  0  0
 18 16  2  0  0  0  0
 21 17  1  0  0  0  0
 22 17  1  0  0  0  0
M  RAD  3  14   2  15   3  19   2
M  END
