Coordinates from ORCA-job p-NO2-Ph-N2-X-OTf-B3LYPG-6-31G_dp-scan-d09-49-n400
 OpenBabel08281820583D

 23 22  0  0  0  0  0  0  0  0999 V2000
   -2.6199   -0.6821   -5.7502 C   0  0  0  0  0  0  0  0  0  0  0  0
   -1.6224    0.0008   -6.4333 C   0  0  0  0  0  0  0  0  0  0  0  0
   -1.2308    1.2505   -5.9319 C   0  0  0  0  0  0  0  0  0  0  0  0
   -1.7947    1.8439   -4.7977 C   0  0  0  0  0  0  0  0  0  0  0  0
   -2.7765    1.1380   -4.1138 C   0  0  0  0  0  0  0  0  0  0  0  0
   -3.1714   -0.1047   -4.6066 C   0  0  0  0  0  0  0  0  0  0  0  0
   -2.9658   -1.6529   -6.0804 H   0  0  0  0  0  0  0  0  0  0  0  0
   -1.1489   -0.4058   -7.3178 H   0  0  0  0  0  0  0  0  0  0  0  0
   -1.4563    2.8153   -4.4585 H   0  0  0  0  0  0  0  0  0  0  0  0
   -3.2408    1.5313   -3.2192 H   0  0  0  0  0  0  0  0  0  0  0  0
   -4.2340   -0.8428   -3.8846 N   0  0  0  0  0  0  0  0  0  0  0  0
   -4.6919   -0.3173   -2.8745 O   0  0  0  0  0  0  0  0  0  0  0  0
   -4.5764   -1.9254   -4.3487 O   0  0  0  0  0  0  0  0  0  0  0  0
   -0.2578    1.9594   -6.6356 N   0  0  0  0  0  0  0  0  0  0  0  0
    0.6408    2.1309   -7.2989 N   0  0  0  0  0  0  0  0  0  0  0  0
    2.2515   -0.2167   -6.3309 S   0  0  0  0  0  0  0  0  0  0  0  0
    3.7188    0.9202   -6.2470 C   0  0  0  0  0  0  0  0  0  0  0  0
    1.5822    0.2189   -7.6320 O   0  0  0  0  0  0  0  0  0  0  0  0
    1.4295    0.1641   -5.1621 O   0  0  0  0  0  0  0  0  0  0  0  0
    2.8092   -1.5677   -6.3893 O   0  0  0  0  0  0  0  0  0  0  0  0
    4.5180    0.7473   -7.3020 F   0  0  0  0  0  0  0  0  0  0  0  0
    3.3007    2.2028   -6.2332 F   0  0  0  0  0  0  0  0  0  0  0  0
    4.4163    0.6931   -5.1298 F   0  0  0  0  0  0  0  0  0  0  0  0
  1  6  2  0  0  0  0
  2  3  2  0  0  0  0
  2  1  1  0  0  0  0
  3  4  1  0  0  0  0
  4  9  1  0  0  0  0
  4  5  2  0  0  0  0
  5 10  1  0  0  0  0
  6  5  1  0  0  0  0
  6 11  1  0  0  0  0
  7  1  1  0  0  0  0
  8  2  1  0  0  0  0
 11 12  2  0  0  0  0
 13 11  2  0  0  0  0
 14  3  1  0  0  0  0
 15 14  1  0  0  0  0
 16 17  1  0  0  0  0
 16 19  1  0  0  0  0
 17 22  1  0  0  0  0
 17 23  1  0  0  0  0
 18 16  2  0  0  0  0
 20 16  2  0  0  0  0
 21 17  1  0  0  0  0
M  RAD  3  14   2  15   3  19   2
M  END
