Coordinates from ORCA-job 1g-Schema5-R8-G+-B3LYPG-6-31G_dp-scan-d49-09-n400
 OpenBabel08281819463D

 29 31  0  0  1  0  0  0  0  0999 V2000
   -4.1018   -1.7558   -1.6688 C   0  0  0  0  0  0  0  0  0  0  0  0
   -3.3469   -2.6914   -2.3394 C   0  0  0  0  0  0  0  0  0  0  0  0
   -3.0516   -2.6662   -3.6861 C   0  0  0  0  0  0  0  0  0  0  0  0
   -3.5475   -1.5961   -4.4347 C   0  0  0  0  0  0  0  0  0  0  0  0
   -4.3022   -0.6037   -3.7966 C   0  0  0  0  0  0  0  0  0  0  0  0
   -4.5843   -0.6779   -2.4274 C   0  0  0  0  0  0  0  0  0  0  0  0
   -4.3216   -1.8274   -0.6090 H   0  0  0  0  0  0  0  0  0  0  0  0
   -4.6706    0.2398   -4.3692 H   0  0  0  0  0  0  0  0  0  0  0  0
   -3.3526   -1.5225   -5.4999 H   0  0  0  0  0  0  0  0  0  0  0  0
   -2.7636   -4.0849   -1.4717 N   0  0  0  0  0  0  0  0  0  0  0  0
   -1.7929   -4.5714   -2.0369 N   0  0  0  0  0  0  0  0  0  0  0  0
   -1.2801   -4.2589   -3.2691 C   0  0  0  0  0  0  0  0  0  0  0  0
   -2.2623   -3.8711   -4.3186 C   0  0  2  0  0  0  0  0  0  0  0  0
    0.0939   -4.2713   -3.4851 C   0  0  0  0  0  0  0  0  0  0  0  0
   -1.6587   -3.6188   -5.6501 C   0  0  0  0  0  0  0  0  0  0  0  0
   -3.0222   -4.6616   -4.4510 H   0  0  0  0  0  0  0  0  0  0  0  0
    0.5684   -3.9248   -4.7434 C   0  0  0  0  0  0  0  0  0  0  0  0
    0.7673   -4.5238   -2.6730 H   0  0  0  0  0  0  0  0  0  0  0  0
   -0.3068   -3.6235   -5.8335 C   0  0  0  0  0  0  0  0  0  0  0  0
   -2.3207   -3.4792   -6.4986 H   0  0  0  0  0  0  0  0  0  0  0  0
    1.6365   -3.8907   -4.9418 H   0  0  0  0  0  0  0  0  0  0  0  0
    0.3407   -3.3517   -7.1652 C   0  0  0  0  0  0  0  0  0  0  0  0
    1.5400   -3.3395   -7.3111 O   0  0  0  0  0  0  0  0  0  0  0  0
   -0.5638   -3.1253   -8.1285 O   0  0  0  0  0  0  0  0  0  0  0  0
   -0.0849   -2.9589   -8.9597 H   0  0  0  0  0  0  0  0  0  0  0  0
   -5.3919    0.3609   -1.7071 C   0  0  0  0  0  0  0  0  0  0  0  0
   -5.6389    0.3045   -0.5238 O   0  0  0  0  0  0  0  0  0  0  0  0
   -5.8005    1.3478   -2.5246 O   0  0  0  0  0  0  0  0  0  0  0  0
   -6.3120    1.9776   -1.9878 H   0  0  0  0  0  0  0  0  0  0  0  0
  1  7  1  0  0  0  0
  2  1  1  0  0  0  0
  2 10  1  0  0  0  0
  3  2  2  0  0  0  0
  4  5  2  0  0  0  0
  4  3  1  0  0  0  0
  5  6  1  0  0  0  0
  6 26  1  0  0  0  0
  6  1  2  0  0  0  0
  8  5  1  0  0  0  0
  9  4  1  0  0  0  0
 11 10  1  0  0  0  0
 12 11  1  0  0  0  0
 13 16  1  6  0  0  0
 13  3  1  0  0  0  0
 13 12  1  0  0  0  0
 14 12  2  0  0  0  0
 14 18  1  0  0  0  0
 15 13  1  0  0  0  0
 17 14  1  0  0  0  0
 19 15  2  0  0  0  0
 19 17  1  0  0  0  0
 20 15  1  0  0  0  0
 21 17  1  0  0  0  0
 22 19  1  0  0  0  0
 23 22  2  0  0  0  0
 24 22  1  0  0  0  0
 25 24  1  0  0  0  0
 26 27  2  0  0  0  0
 28 29  1  0  0  0  0
 28 26  1  0  0  0  0
M  RAD  3  10   2  11   2  17   2
M  END
