Coordinates from ORCA-job 1g-Schema5-R8-G+-B3LYPG-6-31G_dp-scan-d49-09-n400
 OpenBabel08281819463D

 29 29  0  0  0  0  0  0  0  0999 V2000
   -3.5196   -0.9408   -1.1876 C   0  0  0  0  0  0  0  0  0  0  0  0
   -3.2903   -0.2936    0.0085 C   0  0  0  0  0  0  0  0  0  0  0  0
   -3.7679    0.8212    0.3165 C   0  0  0  0  0  0  0  0  0  0  0  0
   -4.5841    1.6664   -0.4080 C   0  0  0  0  0  0  0  0  0  0  0  0
   -4.8664    1.0904   -1.6650 C   0  0  0  0  0  0  0  0  0  0  0  0
   -4.3441   -0.1658   -2.0518 C   0  0  0  0  0  0  0  0  0  0  0  0
   -3.1775   -1.9275   -1.4766 H   0  0  0  0  0  0  0  0  0  0  0  0
   -5.5040    1.6293   -2.3586 H   0  0  0  0  0  0  0  0  0  0  0  0
   -4.9821    2.6262   -0.1020 H   0  0  0  0  0  0  0  0  0  0  0  0
   -1.1440   -1.0262   -3.1735 N   0  0  0  0  0  0  0  0  0  0  0  0
   -1.0301   -1.9187   -3.8315 N   0  0  0  0  0  0  0  0  0  0  0  0
   -0.8803   -3.0280   -4.6372 C   0  0  0  0  0  0  0  0  0  0  0  0
   -2.0344   -3.5964   -5.2112 C   0  0  0  0  0  0  0  0  0  0  0  0
    0.4287   -3.5200   -4.8290 C   0  0  0  0  0  0  0  0  0  0  0  0
   -1.8476   -4.7143   -6.0137 C   0  0  0  0  0  0  0  0  0  0  0  0
   -3.0071   -3.1570   -5.0194 H   0  0  0  0  0  0  0  0  0  0  0  0
    0.5695   -4.6362   -5.6345 C   0  0  0  0  0  0  0  0  0  0  0  0
    1.2804   -3.0394   -4.3614 H   0  0  0  0  0  0  0  0  0  0  0  0
   -0.5597   -5.2313   -6.2231 C   0  0  0  0  0  0  0  0  0  0  0  0
   -2.7006   -5.1924   -6.4798 H   0  0  0  0  0  0  0  0  0  0  0  0
    1.5454   -5.0691   -5.8246 H   0  0  0  0  0  0  0  0  0  0  0  0
   -0.3179   -6.4449   -7.0828 C   0  0  0  0  0  0  0  0  0  0  0  0
    0.7850   -6.9053   -7.2660 O   0  0  0  0  0  0  0  0  0  0  0  0
   -1.4545   -6.9330   -7.6008 O   0  0  0  0  0  0  0  0  0  0  0  0
   -1.2283   -7.7134   -8.1367 H   0  0  0  0  0  0  0  0  0  0  0  0
   -4.6062   -0.7186   -3.4016 C   0  0  0  0  0  0  0  0  0  0  0  0
   -3.9366   -1.6122   -3.9126 O   0  0  0  0  0  0  0  0  0  0  0  0
   -5.6379   -0.1482   -4.0370 O   0  0  0  0  0  0  0  0  0  0  0  0
   -5.7196   -0.5671   -4.9102 H   0  0  0  0  0  0  0  0  0  0  0  0
  1  2  2  0  0  0  0
  2  3  1  0  0  0  0
  4  9  1  0  0  0  0
  4  3  2  0  0  0  0
  5  4  1  0  0  0  0
  6  5  2  0  0  0  0
  6  1  1  0  0  0  0
  7  1  1  0  0  0  0
  8  5  1  0  0  0  0
 11 10  1  0  0  0  0
 12 11  1  0  0  0  0
 13 16  1  0  0  0  0
 13 12  2  0  0  0  0
 14 12  1  0  0  0  0
 14 18  1  0  0  0  0
 15 13  1  0  0  0  0
 17 14  2  0  0  0  0
 19 15  2  0  0  0  0
 19 17  1  0  0  0  0
 20 15  1  0  0  0  0
 21 17  1  0  0  0  0
 22 19  1  0  0  0  0
 23 22  2  0  0  0  0
 24 22  1  0  0  0  0
 25 24  1  0  0  0  0
 26  6  1  0  0  0  0
 27 26  2  0  0  0  0
 28 26  1  0  0  0  0
 29 28  1  0  0  0  0
M  RAD  4   2   2   3   2  10   3  11   2
M  END
