Coordinates from ORCA-job 1g-Schema5-R8-G+-B3LYPG-6-31G_dp-scan-d49-09-n400
 OpenBabel08281819463D

 29 31  0  0  1  0  0  0  0  0999 V2000
   -4.0605   -1.5733   -1.5304 C   0  0  0  0  0  0  0  0  0  0  0  0
   -2.9868   -2.5107   -2.1082 C   0  0  0  0  0  0  0  0  0  0  0  0
   -2.9100   -2.3330   -3.7271 C   0  0  0  0  0  0  0  0  0  0  0  0
   -3.6601   -1.4080   -4.4090 C   0  0  0  0  0  0  0  0  0  0  0  0
   -4.5565   -0.5969   -3.6925 C   0  0  0  0  0  0  0  0  0  0  0  0
   -4.7714   -0.6847   -2.2864 C   0  0  0  0  0  0  0  0  0  0  0  0
   -4.2263   -1.6265   -0.4552 H   0  0  0  0  0  0  0  0  0  0  0  0
   -5.1322    0.1470   -4.2364 H   0  0  0  0  0  0  0  0  0  0  0  0
   -3.5858   -1.2704   -5.4857 H   0  0  0  0  0  0  0  0  0  0  0  0
   -2.4330   -3.0663   -1.6672 N   0  0  0  0  0  0  0  0  0  0  0  0
   -1.3678   -3.9229   -1.9326 N   0  0  0  0  0  0  0  0  0  0  0  0
   -1.0983   -3.9732   -3.2158 C   0  0  0  0  0  0  0  0  0  0  0  0
   -1.9764   -3.3357   -4.2893 C   0  0  2  0  0  0  0  0  0  0  0  0
    0.0503   -4.7208   -3.6453 C   0  0  0  0  0  0  0  0  0  0  0  0
   -1.3356   -3.1628   -5.6319 C   0  0  0  0  0  0  0  0  0  0  0  0
   -2.6932   -4.1786   -4.4844 H   0  0  0  0  0  0  0  0  0  0  0  0
    0.4827   -4.6375   -4.9322 C   0  0  0  0  0  0  0  0  0  0  0  0
    0.5873   -5.2872   -2.8924 H   0  0  0  0  0  0  0  0  0  0  0  0
   -0.1892   -3.8183   -5.9247 C   0  0  0  0  0  0  0  0  0  0  0  0
   -1.8420   -2.5706   -6.3857 H   0  0  0  0  0  0  0  0  0  0  0  0
    1.3763   -5.1618   -5.2554 H   0  0  0  0  0  0  0  0  0  0  0  0
    0.4599   -3.7307   -7.2753 C   0  0  0  0  0  0  0  0  0  0  0  0
    1.4817   -4.3157   -7.5509 O   0  0  0  0  0  0  0  0  0  0  0  0
   -0.2193   -2.9374   -8.1236 O   0  0  0  0  0  0  0  0  0  0  0  0
    0.2644   -2.9311   -8.9677 H   0  0  0  0  0  0  0  0  0  0  0  0
   -5.7789    0.1990   -1.5925 C   0  0  0  0  0  0  0  0  0  0  0  0
   -5.9923    0.1470   -0.4059 O   0  0  0  0  0  0  0  0  0  0  0  0
   -6.3924    1.0271   -2.4551 O   0  0  0  0  0  0  0  0  0  0  0  0
   -7.0265    1.5684   -1.9527 H   0  0  0  0  0  0  0  0  0  0  0  0
  1  7  1  0  0  0  0
  2 10  1  0  0  0  0
  2  1  2  0  0  0  0
  3  2  1  0  0  0  0
  4  3  2  0  0  0  0
  4  5  1  0  0  0  0
  5  6  2  0  0  0  0
  6 26  1  0  0  0  0
  6  1  1  0  0  0  0
  8  5  1  0  0  0  0
  9  4  1  0  0  0  0
 11 10  1  0  0  0  0
 12 11  2  0  0  0  0
 13 16  1  6  0  0  0
 13  3  1  0  0  0  0
 13 12  1  0  0  0  0
 14 12  1  0  0  0  0
 14 18  1  0  0  0  0
 15 13  1  0  0  0  0
 17 14  2  0  0  0  0
 19 15  2  0  0  0  0
 19 17  1  0  0  0  0
 20 15  1  0  0  0  0
 21 17  1  0  0  0  0
 22 19  1  0  0  0  0
 23 22  2  0  0  0  0
 24 22  1  0  0  0  0
 25 24  1  0  0  0  0
 26 27  2  0  0  0  0
 28 29  1  0  0  0  0
 28 26  1  0  0  0  0
M  RAD  1  10   2
M  END
