Coordinates from ORCA-job 1g-Schema5-R8-G+-B3LYPG-6-31G_dp-scan-d49-09-n400
 OpenBabel08281819463D

 29 29  0  0  0  0  0  0  0  0999 V2000
   -3.7511   -1.4085   -1.5440 C   0  0  0  0  0  0  0  0  0  0  0  0
   -3.1382   -0.8728   -0.4265 C   0  0  0  0  0  0  0  0  0  0  0  0
   -3.1910    0.3348   -0.1016 C   0  0  0  0  0  0  0  0  0  0  0  0
   -3.8052    1.3983   -0.7297 C   0  0  0  0  0  0  0  0  0  0  0  0
   -4.4512    0.9466   -1.9027 C   0  0  0  0  0  0  0  0  0  0  0  0
   -4.4159   -0.4065   -2.3077 C   0  0  0  0  0  0  0  0  0  0  0  0
   -3.7748   -2.4495   -1.8486 H   0  0  0  0  0  0  0  0  0  0  0  0
   -4.9952    1.6615   -2.5117 H   0  0  0  0  0  0  0  0  0  0  0  0
   -3.8338    2.4324   -0.4075 H   0  0  0  0  0  0  0  0  0  0  0  0
   -1.3596   -0.9096   -2.9105 N   0  0  0  0  0  0  0  0  0  0  0  0
   -1.1643   -1.7702   -3.5971 N   0  0  0  0  0  0  0  0  0  0  0  0
   -0.9633   -2.8596   -4.4189 C   0  0  0  0  0  0  0  0  0  0  0  0
   -2.1000   -3.4799   -4.9743 C   0  0  0  0  0  0  0  0  0  0  0  0
    0.3640   -3.2827   -4.6421 C   0  0  0  0  0  0  0  0  0  0  0  0
   -1.8751   -4.5835   -5.7873 C   0  0  0  0  0  0  0  0  0  0  0  0
   -3.0944   -3.0909   -4.7684 H   0  0  0  0  0  0  0  0  0  0  0  0
    0.5426   -4.3870   -5.4565 C   0  0  0  0  0  0  0  0  0  0  0  0
    1.2001   -2.7627   -4.1886 H   0  0  0  0  0  0  0  0  0  0  0  0
   -0.5678   -5.0352   -6.0248 C   0  0  0  0  0  0  0  0  0  0  0  0
   -2.7137   -5.0990   -6.2397 H   0  0  0  0  0  0  0  0  0  0  0  0
    1.5343   -4.7703   -5.6696 H   0  0  0  0  0  0  0  0  0  0  0  0
   -0.2838   -6.2319   -6.8949 C   0  0  0  0  0  0  0  0  0  0  0  0
    0.8371   -6.6330   -7.1073 O   0  0  0  0  0  0  0  0  0  0  0  0
   -1.4053   -6.7791   -7.3859 O   0  0  0  0  0  0  0  0  0  0  0  0
   -1.1511   -7.5451   -7.9299 H   0  0  0  0  0  0  0  0  0  0  0  0
   -5.0243   -0.8422   -3.5937 C   0  0  0  0  0  0  0  0  0  0  0  0
   -4.6848   -1.8538   -4.1920 O   0  0  0  0  0  0  0  0  0  0  0  0
   -5.9702   -0.0134   -4.0534 O   0  0  0  0  0  0  0  0  0  0  0  0
   -6.2957   -0.3732   -4.8966 H   0  0  0  0  0  0  0  0  0  0  0  0
  1  2  2  0  0  0  0
  2  3  1  0  0  0  0
  4  9  1  0  0  0  0
  4  3  2  0  0  0  0
  5  4  1  0  0  0  0
  6  5  2  0  0  0  0
  6  1  1  0  0  0  0
  7  1  1  0  0  0  0
  8  5  1  0  0  0  0
 11 10  1  0  0  0  0
 12 11  1  0  0  0  0
 13 16  1  0  0  0  0
 13 12  2  0  0  0  0
 14 12  1  0  0  0  0
 14 18  1  0  0  0  0
 15 13  1  0  0  0  0
 17 14  2  0  0  0  0
 19 15  2  0  0  0  0
 19 17  1  0  0  0  0
 20 15  1  0  0  0  0
 21 17  1  0  0  0  0
 22 19  1  0  0  0  0
 23 22  2  0  0  0  0
 24 22  1  0  0  0  0
 25 24  1  0  0  0  0
 26  6  1  0  0  0  0
 27 26  2  0  0  0  0
 28 26  1  0  0  0  0
 29 28  1  0  0  0  0
M  RAD  4   2   2   3   2  10   3  11   2
M  END
