Coordinates from ORCA-job 1g-Schema5-R8-G+-B3LYPG-6-31G_dp-scan-d49-09-n400
 OpenBabel08281819463D

 29 29  0  0  0  0  0  0  0  0999 V2000
   -4.0269   -1.3712   -2.0572 C   0  0  0  0  0  0  0  0  0  0  0  0
   -2.7536   -0.9047   -2.4200 C   0  0  0  0  0  0  0  0  0  0  0  0
   -2.6853    0.2924   -2.8383 C   0  0  0  0  0  0  0  0  0  0  0  0
   -3.5468    1.3169   -3.0935 C   0  0  0  0  0  0  0  0  0  0  0  0
   -4.8399    0.8570   -2.7399 C   0  0  0  0  0  0  0  0  0  0  0  0
   -5.0720   -0.4421   -2.2441 C   0  0  0  0  0  0  0  0  0  0  0  0
   -4.2380   -2.3592   -1.6615 H   0  0  0  0  0  0  0  0  0  0  0  0
   -5.6738    1.5429   -2.8517 H   0  0  0  0  0  0  0  0  0  0  0  0
   -3.3417    2.3104   -3.4699 H   0  0  0  0  0  0  0  0  0  0  0  0
   -1.1662   -2.1031   -1.7684 N   0  0  0  0  0  0  0  0  0  0  0  0
   -0.7130   -2.8357   -2.5170 N   0  0  0  0  0  0  0  0  0  0  0  0
   -0.5100   -3.4790   -3.7285 C   0  0  0  0  0  0  0  0  0  0  0  0
   -1.2758   -3.0878   -4.8437 C   0  0  0  0  0  0  0  0  0  0  0  0
    0.4588   -4.4960   -3.7771 C   0  0  0  0  0  0  0  0  0  0  0  0
   -1.0502   -3.7475   -6.0431 C   0  0  0  0  0  0  0  0  0  0  0  0
   -2.0130   -2.2978   -4.7559 H   0  0  0  0  0  0  0  0  0  0  0  0
    0.6623   -5.1387   -4.9891 C   0  0  0  0  0  0  0  0  0  0  0  0
    1.0212   -4.7599   -2.8884 H   0  0  0  0  0  0  0  0  0  0  0  0
   -0.0859   -4.7672   -6.1160 C   0  0  0  0  0  0  0  0  0  0  0  0
   -1.6161   -3.4791   -6.9272 H   0  0  0  0  0  0  0  0  0  0  0  0
    1.3952   -5.9317   -5.0890 H   0  0  0  0  0  0  0  0  0  0  0  0
    0.1929   -5.5067   -7.3970 C   0  0  0  0  0  0  0  0  0  0  0  0
    1.0155   -6.3888   -7.4803 O   0  0  0  0  0  0  0  0  0  0  0  0
   -0.5708   -5.0697   -8.4119 O   0  0  0  0  0  0  0  0  0  0  0  0
   -0.3383   -5.5880   -9.2020 H   0  0  0  0  0  0  0  0  0  0  0  0
   -6.4503   -0.9110   -1.8808 C   0  0  0  0  0  0  0  0  0  0  0  0
   -6.6891   -2.0279   -1.4783 O   0  0  0  0  0  0  0  0  0  0  0  0
   -7.3830    0.0442   -2.0528 O   0  0  0  0  0  0  0  0  0  0  0  0
   -8.2383   -0.3368   -1.7889 H   0  0  0  0  0  0  0  0  0  0  0  0
  1  7  1  0  0  0  0
  2  1  2  0  0  0  0
  3  2  1  0  0  0  0
  4  3  2  0  0  0  0
  4  5  1  0  0  0  0
  5  6  2  0  0  0  0
  6  1  1  0  0  0  0
  6 26  1  0  0  0  0
  8  5  1  0  0  0  0
  9  4  1  0  0  0  0
 11 10  1  0  0  0  0
 12 11  1  0  0  0  0
 13 16  1  0  0  0  0
 13 12  2  0  0  0  0
 14 12  1  0  0  0  0
 14 18  1  0  0  0  0
 15 13  1  0  0  0  0
 17 14  2  0  0  0  0
 19 15  2  0  0  0  0
 19 17  1  0  0  0  0
 20 15  1  0  0  0  0
 21 17  1  0  0  0  0
 22 19  1  0  0  0  0
 23 22  2  0  0  0  0
 24 22  1  0  0  0  0
 25 24  1  0  0  0  0
 26 27  2  0  0  0  0
 28 26  1  0  0  0  0
 28 29  1  0  0  0  0
M  RAD  4   2   2   3   2  10   3  11   2
M  END
