Coordinates from ORCA-job 1g-Schema5-R8-G+-B3LYPG-6-31G_dp-scan-d49-09-n400
 OpenBabel08281819463D

 29 29  0  0  0  0  0  0  0  0999 V2000
   -3.7134   -1.3459   -1.4986 C   0  0  0  0  0  0  0  0  0  0  0  0
   -3.1597   -0.8099   -0.3516 C   0  0  0  0  0  0  0  0  0  0  0  0
   -3.2731    0.3871   -0.0045 C   0  0  0  0  0  0  0  0  0  0  0  0
   -3.9137    1.4373   -0.6292 C   0  0  0  0  0  0  0  0  0  0  0  0
   -4.5036    0.9849   -1.8306 C   0  0  0  0  0  0  0  0  0  0  0  0
   -4.3980   -0.3563   -2.2618 C   0  0  0  0  0  0  0  0  0  0  0  0
   -3.6877   -2.3810   -1.8222 H   0  0  0  0  0  0  0  0  0  0  0  0
   -5.0581    1.6897   -2.4419 H   0  0  0  0  0  0  0  0  0  0  0  0
   -3.9965    2.4618   -0.2865 H   0  0  0  0  0  0  0  0  0  0  0  0
   -1.3816   -0.9116   -3.0051 N   0  0  0  0  0  0  0  0  0  0  0  0
   -1.2057   -1.7855   -3.6792 N   0  0  0  0  0  0  0  0  0  0  0  0
   -0.9929   -2.8853   -4.4844 C   0  0  0  0  0  0  0  0  0  0  0  0
   -2.1178   -3.5259   -5.0394 C   0  0  0  0  0  0  0  0  0  0  0  0
    0.3407   -3.2984   -4.6906 C   0  0  0  0  0  0  0  0  0  0  0  0
   -1.8753   -4.6387   -5.8346 C   0  0  0  0  0  0  0  0  0  0  0  0
   -3.1148   -3.1417   -4.8448 H   0  0  0  0  0  0  0  0  0  0  0  0
    0.5374   -4.4124   -5.4873 C   0  0  0  0  0  0  0  0  0  0  0  0
    1.1678   -2.7634   -4.2381 H   0  0  0  0  0  0  0  0  0  0  0  0
   -0.5616   -5.0803   -6.0552 C   0  0  0  0  0  0  0  0  0  0  0  0
   -2.7047   -5.1696   -6.2861 H   0  0  0  0  0  0  0  0  0  0  0  0
    1.5348   -4.7885   -5.6865 H   0  0  0  0  0  0  0  0  0  0  0  0
   -0.2581   -6.2864   -6.9054 C   0  0  0  0  0  0  0  0  0  0  0  0
    0.8685   -6.6790   -7.1025 O   0  0  0  0  0  0  0  0  0  0  0  0
   -1.3697   -6.8519   -7.3981 O   0  0  0  0  0  0  0  0  0  0  0  0
   -1.1030   -7.6230   -7.9287 H   0  0  0  0  0  0  0  0  0  0  0  0
   -4.9467   -0.7883   -3.5743 C   0  0  0  0  0  0  0  0  0  0  0  0
   -4.5488   -1.7748   -4.1796 O   0  0  0  0  0  0  0  0  0  0  0  0
   -5.9071    0.0130   -4.0521 O   0  0  0  0  0  0  0  0  0  0  0  0
   -6.1895   -0.3419   -4.9126 H   0  0  0  0  0  0  0  0  0  0  0  0
  1  2  2  0  0  0  0
  2  3  1  0  0  0  0
  4  9  1  0  0  0  0
  4  3  2  0  0  0  0
  5  4  1  0  0  0  0
  6  5  2  0  0  0  0
  6  1  1  0  0  0  0
  7  1  1  0  0  0  0
  8  5  1  0  0  0  0
 11 10  1  0  0  0  0
 12 11  1  0  0  0  0
 13 16  1  0  0  0  0
 13 12  2  0  0  0  0
 14 12  1  0  0  0  0
 14 18  1  0  0  0  0
 15 13  1  0  0  0  0
 17 14  2  0  0  0  0
 19 15  2  0  0  0  0
 19 17  1  0  0  0  0
 20 15  1  0  0  0  0
 21 17  1  0  0  0  0
 22 19  1  0  0  0  0
 23 22  2  0  0  0  0
 24 22  1  0  0  0  0
 25 24  1  0  0  0  0
 26  6  1  0  0  0  0
 27 26  2  0  0  0  0
 28 26  1  0  0  0  0
 29 28  1  0  0  0  0
M  RAD  4   2   2   3   2  10   3  11   2
M  END
