Coordinates from ORCA-job 1g-Schema5-R8-G+-B3LYPG-6-31G_dp-scan-d49-09-n400
 OpenBabel08281819463D

 29 29  0  0  0  0  0  0  0  0999 V2000
   -3.7443   -1.3851   -1.5207 C   0  0  0  0  0  0  0  0  0  0  0  0
   -3.1497   -0.8496   -0.3936 C   0  0  0  0  0  0  0  0  0  0  0  0
   -3.2176    0.3555   -0.0630 C   0  0  0  0  0  0  0  0  0  0  0  0
   -3.8351    1.4165   -0.6923 C   0  0  0  0  0  0  0  0  0  0  0  0
   -4.4633    0.9652   -1.8749 C   0  0  0  0  0  0  0  0  0  0  0  0
   -4.4101   -0.3852   -2.2866 C   0  0  0  0  0  0  0  0  0  0  0  0
   -3.7552   -2.4247   -1.8305 H   0  0  0  0  0  0  0  0  0  0  0  0
   -5.0067    1.6783   -2.4866 H   0  0  0  0  0  0  0  0  0  0  0  0
   -3.8772    2.4485   -0.3650 H   0  0  0  0  0  0  0  0  0  0  0  0
   -1.3829   -0.9151   -2.9467 N   0  0  0  0  0  0  0  0  0  0  0  0
   -1.1954   -1.7806   -3.6292 N   0  0  0  0  0  0  0  0  0  0  0  0
   -0.9853   -2.8726   -4.4453 C   0  0  0  0  0  0  0  0  0  0  0  0
   -2.1138   -3.5058   -5.0024 C   0  0  0  0  0  0  0  0  0  0  0  0
    0.3466   -3.2859   -4.6606 C   0  0  0  0  0  0  0  0  0  0  0  0
   -1.8758   -4.6116   -5.8088 C   0  0  0  0  0  0  0  0  0  0  0  0
   -3.1113   -3.1237   -4.8024 H   0  0  0  0  0  0  0  0  0  0  0  0
    0.5385   -4.3928   -5.4684 C   0  0  0  0  0  0  0  0  0  0  0  0
    1.1763   -2.7566   -4.2061 H   0  0  0  0  0  0  0  0  0  0  0  0
   -0.5638   -5.0534   -6.0384 C   0  0  0  0  0  0  0  0  0  0  0  0
   -2.7079   -5.1367   -6.2622 H   0  0  0  0  0  0  0  0  0  0  0  0
    1.5345   -4.7686   -5.6750 H   0  0  0  0  0  0  0  0  0  0  0  0
   -0.2656   -6.2521   -6.9008 C   0  0  0  0  0  0  0  0  0  0  0  0
    0.8596   -6.6448   -7.1061 O   0  0  0  0  0  0  0  0  0  0  0  0
   -1.3802   -6.8116   -7.3938 O   0  0  0  0  0  0  0  0  0  0  0  0
   -1.1169   -7.5783   -7.9325 H   0  0  0  0  0  0  0  0  0  0  0  0
   -4.9955   -0.8186   -3.5836 C   0  0  0  0  0  0  0  0  0  0  0  0
   -4.6328   -1.8204   -4.1851 O   0  0  0  0  0  0  0  0  0  0  0  0
   -5.9462    0.0004   -4.0501 O   0  0  0  0  0  0  0  0  0  0  0  0
   -6.2546   -0.3565   -4.9009 H   0  0  0  0  0  0  0  0  0  0  0  0
  1  2  2  0  0  0  0
  2  3  1  0  0  0  0
  4  9  1  0  0  0  0
  4  3  2  0  0  0  0
  5  4  1  0  0  0  0
  6  5  2  0  0  0  0
  6  1  1  0  0  0  0
  7  1  1  0  0  0  0
  8  5  1  0  0  0  0
 11 10  1  0  0  0  0
 12 11  1  0  0  0  0
 13 16  1  0  0  0  0
 13 12  2  0  0  0  0
 14 12  1  0  0  0  0
 14 18  1  0  0  0  0
 15 13  1  0  0  0  0
 17 14  2  0  0  0  0
 19 15  2  0  0  0  0
 19 17  1  0  0  0  0
 20 15  1  0  0  0  0
 21 17  1  0  0  0  0
 22 19  1  0  0  0  0
 23 22  2  0  0  0  0
 24 22  1  0  0  0  0
 25 24  1  0  0  0  0
 26  6  1  0  0  0  0
 27 26  2  0  0  0  0
 28 26  1  0  0  0  0
 29 28  1  0  0  0  0
M  RAD  4   2   2   3   2  10   3  11   2
M  END
