Coordinates from ORCA-job 1g-Schema5-R8-G+-B3LYPG-6-31G_dp-scan-d49-09-n400
 OpenBabel08281819463D

 29 29  0  0  0  0  0  0  0  0999 V2000
   -4.0777   -1.3342   -2.0799 C   0  0  0  0  0  0  0  0  0  0  0  0
   -2.8142   -0.8517   -2.4518 C   0  0  0  0  0  0  0  0  0  0  0  0
   -2.7449    0.3539   -2.8333 C   0  0  0  0  0  0  0  0  0  0  0  0
   -3.6109    1.3900   -3.0300 C   0  0  0  0  0  0  0  0  0  0  0  0
   -4.8971    0.9207   -2.6665 C   0  0  0  0  0  0  0  0  0  0  0  0
   -5.1234   -0.3947   -2.2115 C   0  0  0  0  0  0  0  0  0  0  0  0
   -4.2869   -2.3339   -1.7141 H   0  0  0  0  0  0  0  0  0  0  0  0
   -5.7328    1.6095   -2.7403 H   0  0  0  0  0  0  0  0  0  0  0  0
   -3.4119    2.3946   -3.3789 H   0  0  0  0  0  0  0  0  0  0  0  0
   -1.1250   -2.1271   -1.8048 N   0  0  0  0  0  0  0  0  0  0  0  0
   -0.7091   -2.8396   -2.5827 N   0  0  0  0  0  0  0  0  0  0  0  0
   -0.4844   -3.5042   -3.7763 C   0  0  0  0  0  0  0  0  0  0  0  0
   -1.2319   -3.1147   -4.9044 C   0  0  0  0  0  0  0  0  0  0  0  0
    0.4769   -4.5295   -3.7978 C   0  0  0  0  0  0  0  0  0  0  0  0
   -0.9943   -3.7872   -6.0943 C   0  0  0  0  0  0  0  0  0  0  0  0
   -1.9625   -2.3166   -4.8304 H   0  0  0  0  0  0  0  0  0  0  0  0
    0.6905   -5.1840   -5.0015 C   0  0  0  0  0  0  0  0  0  0  0  0
    1.0245   -4.7903   -2.8990 H   0  0  0  0  0  0  0  0  0  0  0  0
   -0.0381   -4.8157   -6.1428 C   0  0  0  0  0  0  0  0  0  0  0  0
   -1.5446   -3.5217   -6.9890 H   0  0  0  0  0  0  0  0  0  0  0  0
    1.4174   -5.9845   -5.0840 H   0  0  0  0  0  0  0  0  0  0  0  0
    0.2536   -5.5700   -7.4129 C   0  0  0  0  0  0  0  0  0  0  0  0
    1.0690   -6.4605   -7.4739 O   0  0  0  0  0  0  0  0  0  0  0  0
   -0.4896   -5.1344   -8.4428 O   0  0  0  0  0  0  0  0  0  0  0  0
   -0.2509   -5.6610   -9.2256 H   0  0  0  0  0  0  0  0  0  0  0  0
   -6.4949   -0.8712   -1.8357 C   0  0  0  0  0  0  0  0  0  0  0  0
   -6.7313   -2.0007   -1.4671 O   0  0  0  0  0  0  0  0  0  0  0  0
   -7.4289    0.0915   -1.9541 O   0  0  0  0  0  0  0  0  0  0  0  0
   -8.2786   -0.2985   -1.6858 H   0  0  0  0  0  0  0  0  0  0  0  0
  1  7  1  0  0  0  0
  2  1  2  0  0  0  0
  3  2  1  0  0  0  0
  4  3  2  0  0  0  0
  4  5  1  0  0  0  0
  5  6  2  0  0  0  0
  6  1  1  0  0  0  0
  6 26  1  0  0  0  0
  8  5  1  0  0  0  0
  9  4  1  0  0  0  0
 11 10  1  0  0  0  0
 12 11  1  0  0  0  0
 13 16  1  0  0  0  0
 13 12  2  0  0  0  0
 14 12  1  0  0  0  0
 14 18  1  0  0  0  0
 15 13  1  0  0  0  0
 17 14  2  0  0  0  0
 19 15  2  0  0  0  0
 19 17  1  0  0  0  0
 20 15  1  0  0  0  0
 21 17  1  0  0  0  0
 22 19  1  0  0  0  0
 23 22  2  0  0  0  0
 24 22  1  0  0  0  0
 25 24  1  0  0  0  0
 26 27  2  0  0  0  0
 28 26  1  0  0  0  0
 28 29  1  0  0  0  0
M  RAD  4   2   2   3   2  10   3  11   2
M  END
