Coordinates from ORCA-job 1g-Schema5-R8-G+-B3LYPG-6-31G_dp-scan-d49-09-n400
 OpenBabel08281819463D

 29 29  0  0  0  0  0  0  0  0999 V2000
   -3.4935   -0.7831   -1.0694 C   0  0  0  0  0  0  0  0  0  0  0  0
   -3.3709   -0.0843    0.1125 C   0  0  0  0  0  0  0  0  0  0  0  0
   -3.9482    0.9966    0.3657 C   0  0  0  0  0  0  0  0  0  0  0  0
   -4.7979    1.7495   -0.4196 C   0  0  0  0  0  0  0  0  0  0  0  0
   -4.9802    1.1144   -1.6660 C   0  0  0  0  0  0  0  0  0  0  0  0
   -4.3429   -0.1066   -1.9898 C   0  0  0  0  0  0  0  0  0  0  0  0
   -3.0529   -1.7426   -1.3132 H   0  0  0  0  0  0  0  0  0  0  0  0
   -5.6288    1.5787   -2.4020 H   0  0  0  0  0  0  0  0  0  0  0  0
   -5.2818    2.6841   -0.1634 H   0  0  0  0  0  0  0  0  0  0  0  0
   -1.0348   -1.1410   -3.1099 N   0  0  0  0  0  0  0  0  0  0  0  0
   -0.9185   -2.0152   -3.7907 N   0  0  0  0  0  0  0  0  0  0  0  0
   -0.8003   -3.1024   -4.6302 C   0  0  0  0  0  0  0  0  0  0  0  0
   -1.9782   -3.6298   -5.1952 C   0  0  0  0  0  0  0  0  0  0  0  0
    0.4935   -3.6141   -4.8639 C   0  0  0  0  0  0  0  0  0  0  0  0
   -1.8321   -4.7268   -6.0339 C   0  0  0  0  0  0  0  0  0  0  0  0
   -2.9362   -3.1749   -4.9675 H   0  0  0  0  0  0  0  0  0  0  0  0
    0.5940   -4.7081   -5.7053 C   0  0  0  0  0  0  0  0  0  0  0  0
    1.3645   -3.1650   -4.4005 H   0  0  0  0  0  0  0  0  0  0  0  0
   -0.5595   -5.2624   -6.2866 C   0  0  0  0  0  0  0  0  0  0  0  0
   -2.7042   -5.1740   -6.4952 H   0  0  0  0  0  0  0  0  0  0  0  0
    1.5564   -5.1545   -5.9299 H   0  0  0  0  0  0  0  0  0  0  0  0
   -0.3610   -6.4535   -7.1879 C   0  0  0  0  0  0  0  0  0  0  0  0
    0.7280   -6.9297   -7.4095 O   0  0  0  0  0  0  0  0  0  0  0  0
   -1.5185   -6.9039   -7.6934 O   0  0  0  0  0  0  0  0  0  0  0  0
   -1.3203   -7.6719   -8.2576 H   0  0  0  0  0  0  0  0  0  0  0  0
   -4.5146   -0.7234   -3.3250 C   0  0  0  0  0  0  0  0  0  0  0  0
   -3.7822   -1.6031   -3.7724 O   0  0  0  0  0  0  0  0  0  0  0  0
   -5.5442   -0.2316   -4.0271 O   0  0  0  0  0  0  0  0  0  0  0  0
   -5.5665   -0.6875   -4.8848 H   0  0  0  0  0  0  0  0  0  0  0  0
  1  2  2  0  0  0  0
  2  3  1  0  0  0  0
  4  9  1  0  0  0  0
  4  3  2  0  0  0  0
  5  4  1  0  0  0  0
  6  5  2  0  0  0  0
  6  1  1  0  0  0  0
  7  1  1  0  0  0  0
  8  5  1  0  0  0  0
 11 10  1  0  0  0  0
 12 11  1  0  0  0  0
 13 16  1  0  0  0  0
 13 12  2  0  0  0  0
 14 12  1  0  0  0  0
 14 18  1  0  0  0  0
 15 13  1  0  0  0  0
 17 14  2  0  0  0  0
 19 15  2  0  0  0  0
 19 17  1  0  0  0  0
 20 15  1  0  0  0  0
 21 17  1  0  0  0  0
 22 19  1  0  0  0  0
 23 22  2  0  0  0  0
 24 22  1  0  0  0  0
 25 24  1  0  0  0  0
 26  6  1  0  0  0  0
 27 26  2  0  0  0  0
 28 26  1  0  0  0  0
 29 28  1  0  0  0  0
M  RAD  4   2   2   3   2  10   3  11   2
M  END
