Coordinates from ORCA-job 1g-Schema5-R8-G+-B3LYPG-6-31G_dp-scan-d49-09-n400
 OpenBabel08281819463D

 29 29  0  0  0  0  0  0  0  0999 V2000
   -3.5489   -1.0665   -1.2880 C   0  0  0  0  0  0  0  0  0  0  0  0
   -3.2336   -0.4664   -0.0861 C   0  0  0  0  0  0  0  0  0  0  0  0
   -3.6221    0.6708    0.2628 C   0  0  0  0  0  0  0  0  0  0  0  0
   -4.4010    1.5884   -0.4130 C   0  0  0  0  0  0  0  0  0  0  0  0
   -4.7646    1.0648   -1.6726 C   0  0  0  0  0  0  0  0  0  0  0  0
   -4.3449   -0.2140   -2.1055 C   0  0  0  0  0  0  0  0  0  0  0  0
   -3.2898   -2.0685   -1.6100 H   0  0  0  0  0  0  0  0  0  0  0  0
   -5.3867    1.6629   -2.3308 H   0  0  0  0  0  0  0  0  0  0  0  0
   -4.7229    2.5642   -0.0706 H   0  0  0  0  0  0  0  0  0  0  0  0
   -1.2419   -0.9455   -3.2117 N   0  0  0  0  0  0  0  0  0  0  0  0
   -1.1233   -1.8482   -3.8557 N   0  0  0  0  0  0  0  0  0  0  0  0
   -0.9458   -2.9711   -4.6374 C   0  0  0  0  0  0  0  0  0  0  0  0
   -2.0799   -3.5735   -5.2154 C   0  0  0  0  0  0  0  0  0  0  0  0
    0.3750   -3.4424   -4.8003 C   0  0  0  0  0  0  0  0  0  0  0  0
   -1.8604   -4.7050   -5.9904 C   0  0  0  0  0  0  0  0  0  0  0  0
   -3.0636   -3.1490   -5.0495 H   0  0  0  0  0  0  0  0  0  0  0  0
    0.5486   -4.5732   -5.5784 C   0  0  0  0  0  0  0  0  0  0  0  0
    1.2108   -2.9357   -4.3313 H   0  0  0  0  0  0  0  0  0  0  0  0
   -0.5605   -5.2025   -6.1698 C   0  0  0  0  0  0  0  0  0  0  0  0
   -2.6977   -5.2086   -6.4583 H   0  0  0  0  0  0  0  0  0  0  0  0
    1.5352   -4.9915   -5.7447 H   0  0  0  0  0  0  0  0  0  0  0  0
   -0.2835   -6.4300   -6.9982 C   0  0  0  0  0  0  0  0  0  0  0  0
    0.8305   -6.8731   -7.1557 O   0  0  0  0  0  0  0  0  0  0  0  0
   -1.4029   -6.9519   -7.5205 O   0  0  0  0  0  0  0  0  0  0  0  0
   -1.1540   -7.7398   -8.0350 H   0  0  0  0  0  0  0  0  0  0  0  0
   -4.6816   -0.7107   -3.4619 C   0  0  0  0  0  0  0  0  0  0  0  0
   -4.0684   -1.6118   -4.0256 O   0  0  0  0  0  0  0  0  0  0  0  0
   -5.7110   -0.0769   -4.0372 O   0  0  0  0  0  0  0  0  0  0  0  0
   -5.8428   -0.4611   -4.9205 H   0  0  0  0  0  0  0  0  0  0  0  0
  1  2  2  0  0  0  0
  2  3  1  0  0  0  0
  4  9  1  0  0  0  0
  4  3  2  0  0  0  0
  5  4  1  0  0  0  0
  6  5  2  0  0  0  0
  6  1  1  0  0  0  0
  7  1  1  0  0  0  0
  8  5  1  0  0  0  0
 11 10  1  0  0  0  0
 12 11  1  0  0  0  0
 13 16  1  0  0  0  0
 13 12  2  0  0  0  0
 14 12  1  0  0  0  0
 14 18  1  0  0  0  0
 15 13  1  0  0  0  0
 17 14  2  0  0  0  0
 19 15  2  0  0  0  0
 19 17  1  0  0  0  0
 20 15  1  0  0  0  0
 21 17  1  0  0  0  0
 22 19  1  0  0  0  0
 23 22  2  0  0  0  0
 24 22  1  0  0  0  0
 25 24  1  0  0  0  0
 26  6  1  0  0  0  0
 27 26  2  0  0  0  0
 28 26  1  0  0  0  0
 29 28  1  0  0  0  0
M  RAD  4   2   2   3   2  10   3  11   2
M  END
