Coordinates from ORCA-job 1g-Schema5-R8-G+-B3LYPG-6-31G_dp-scan-d49-09-n400
 OpenBabel08281819463D

 29 29  0  0  0  0  0  0  0  0999 V2000
   -3.4703   -0.6944   -1.0208 C   0  0  0  0  0  0  0  0  0  0  0  0
   -3.3970    0.0285    0.1504 C   0  0  0  0  0  0  0  0  0  0  0  0
   -4.0285    1.0842    0.3795 C   0  0  0  0  0  0  0  0  0  0  0  0
   -4.9040    1.7818   -0.4284 C   0  0  0  0  0  0  0  0  0  0  0  0
   -5.0402    1.1182   -1.6656 C   0  0  0  0  0  0  0  0  0  0  0  0
   -4.3408   -0.0758   -1.9616 C   0  0  0  0  0  0  0  0  0  0  0  0
   -2.9767   -1.6329   -1.2442 H   0  0  0  0  0  0  0  0  0  0  0  0
   -5.7009    1.5386   -2.4169 H   0  0  0  0  0  0  0  0  0  0  0  0
   -5.4349    2.6965   -0.1943 H   0  0  0  0  0  0  0  0  0  0  0  0
   -0.9878   -1.2039   -3.0724 N   0  0  0  0  0  0  0  0  0  0  0  0
   -0.8654   -2.0674   -3.7658 N   0  0  0  0  0  0  0  0  0  0  0  0
   -0.7621   -3.1415   -4.6235 C   0  0  0  0  0  0  0  0  0  0  0  0
   -1.9507   -3.6446   -5.1887 C   0  0  0  0  0  0  0  0  0  0  0  0
    0.5230   -3.6656   -4.8741 C   0  0  0  0  0  0  0  0  0  0  0  0
   -1.8247   -4.7298   -6.0455 C   0  0  0  0  0  0  0  0  0  0  0  0
   -2.9007   -3.1800   -4.9469 H   0  0  0  0  0  0  0  0  0  0  0  0
    0.6038   -4.7470   -5.7339 C   0  0  0  0  0  0  0  0  0  0  0  0
    1.4028   -3.2352   -4.4094 H   0  0  0  0  0  0  0  0  0  0  0  0
   -0.5606   -5.2772   -6.3158 C   0  0  0  0  0  0  0  0  0  0  0  0
   -2.7054   -5.1587   -6.5079 H   0  0  0  0  0  0  0  0  0  0  0  0
    1.5588   -5.2019   -5.9726 H   0  0  0  0  0  0  0  0  0  0  0  0
   -0.3836   -6.4558   -7.2378 C   0  0  0  0  0  0  0  0  0  0  0  0
    0.6978   -6.9406   -7.4770 O   0  0  0  0  0  0  0  0  0  0  0  0
   -1.5505   -6.8833   -7.7419 O   0  0  0  0  0  0  0  0  0  0  0  0
   -1.3659   -7.6434   -8.3212 H   0  0  0  0  0  0  0  0  0  0  0  0
   -4.4689   -0.7220   -3.2873 C   0  0  0  0  0  0  0  0  0  0  0  0
   -3.7000   -1.5845   -3.7079 O   0  0  0  0  0  0  0  0  0  0  0  0
   -5.5033   -0.2791   -4.0147 O   0  0  0  0  0  0  0  0  0  0  0  0
   -5.4950   -0.7491   -4.8648 H   0  0  0  0  0  0  0  0  0  0  0  0
  1  2  2  0  0  0  0
  2  3  1  0  0  0  0
  4  9  1  0  0  0  0
  4  3  2  0  0  0  0
  5  4  1  0  0  0  0
  6  5  2  0  0  0  0
  6  1  1  0  0  0  0
  7  1  1  0  0  0  0
  8  5  1  0  0  0  0
 11 10  1  0  0  0  0
 12 11  1  0  0  0  0
 13 16  1  0  0  0  0
 13 12  2  0  0  0  0
 14 12  1  0  0  0  0
 14 18  1  0  0  0  0
 15 13  1  0  0  0  0
 17 14  2  0  0  0  0
 19 15  2  0  0  0  0
 19 17  1  0  0  0  0
 20 15  1  0  0  0  0
 21 17  1  0  0  0  0
 22 19  1  0  0  0  0
 23 22  2  0  0  0  0
 24 22  1  0  0  0  0
 25 24  1  0  0  0  0
 26  6  1  0  0  0  0
 27 26  2  0  0  0  0
 28 26  1  0  0  0  0
 29 28  1  0  0  0  0
M  RAD  4   2   2   3   2  10   3  11   2
M  END
