Coordinates from ORCA-job 1g-Schema5-R8-G+-B3LYPG-6-31G_dp-scan-d49-09-n400
 OpenBabel08281819463D

 29 29  0  0  0  0  0  0  0  0999 V2000
   -3.4626   -0.6342   -0.9789 C   0  0  0  0  0  0  0  0  0  0  0  0
   -3.4417    0.0928    0.1916 C   0  0  0  0  0  0  0  0  0  0  0  0
   -4.1148    1.1255    0.4062 C   0  0  0  0  0  0  0  0  0  0  0  0
   -4.9985    1.7889   -0.4217 C   0  0  0  0  0  0  0  0  0  0  0  0
   -5.0853    1.1182   -1.6593 C   0  0  0  0  0  0  0  0  0  0  0  0
   -4.3373   -0.0507   -1.9381 C   0  0  0  0  0  0  0  0  0  0  0  0
   -2.9263   -1.5518   -1.1904 H   0  0  0  0  0  0  0  0  0  0  0  0
   -5.7450    1.5128   -2.4252 H   0  0  0  0  0  0  0  0  0  0  0  0
   -5.5663    2.6848   -0.2015 H   0  0  0  0  0  0  0  0  0  0  0  0
   -0.9460   -1.2296   -3.0753 N   0  0  0  0  0  0  0  0  0  0  0  0
   -0.8189   -2.0907   -3.7707 N   0  0  0  0  0  0  0  0  0  0  0  0
   -0.7289   -3.1619   -4.6334 C   0  0  0  0  0  0  0  0  0  0  0  0
   -1.9274   -3.6531   -5.1883 C   0  0  0  0  0  0  0  0  0  0  0  0
    0.5489   -3.6952   -4.8992 C   0  0  0  0  0  0  0  0  0  0  0  0
   -1.8196   -4.7360   -6.0503 C   0  0  0  0  0  0  0  0  0  0  0  0
   -2.8705   -3.1809   -4.9343 H   0  0  0  0  0  0  0  0  0  0  0  0
    0.6120   -4.7738   -5.7642 C   0  0  0  0  0  0  0  0  0  0  0  0
    1.4369   -3.2738   -4.4418 H   0  0  0  0  0  0  0  0  0  0  0  0
   -0.5626   -5.2923   -6.3357 C   0  0  0  0  0  0  0  0  0  0  0  0
   -2.7085   -5.1561   -6.5051 H   0  0  0  0  0  0  0  0  0  0  0  0
    1.5606   -5.2355   -6.0148 H   0  0  0  0  0  0  0  0  0  0  0  0
   -0.4049   -6.4689   -7.2639 C   0  0  0  0  0  0  0  0  0  0  0  0
    0.6701   -6.9600   -7.5183 O   0  0  0  0  0  0  0  0  0  0  0  0
   -1.5807   -6.8857   -7.7563 O   0  0  0  0  0  0  0  0  0  0  0  0
   -1.4084   -7.6446   -8.3409 H   0  0  0  0  0  0  0  0  0  0  0  0
   -4.4217   -0.7068   -3.2618 C   0  0  0  0  0  0  0  0  0  0  0  0
   -3.6299   -1.5603   -3.6593 O   0  0  0  0  0  0  0  0  0  0  0  0
   -5.4455   -0.2859   -4.0172 O   0  0  0  0  0  0  0  0  0  0  0  0
   -5.4090   -0.7611   -4.8636 H   0  0  0  0  0  0  0  0  0  0  0  0
  1  2  2  0  0  0  0
  2  3  1  0  0  0  0
  4  9  1  0  0  0  0
  4  3  2  0  0  0  0
  5  4  1  0  0  0  0
  6  5  2  0  0  0  0
  6  1  1  0  0  0  0
  7  1  1  0  0  0  0
  8  5  1  0  0  0  0
 11 10  1  0  0  0  0
 12 11  1  0  0  0  0
 13 16  1  0  0  0  0
 13 12  2  0  0  0  0
 14 12  1  0  0  0  0
 14 18  1  0  0  0  0
 15 13  1  0  0  0  0
 17 14  2  0  0  0  0
 19 15  2  0  0  0  0
 19 17  1  0  0  0  0
 20 15  1  0  0  0  0
 21 17  1  0  0  0  0
 22 19  1  0  0  0  0
 23 22  2  0  0  0  0
 24 22  1  0  0  0  0
 25 24  1  0  0  0  0
 26  6  1  0  0  0  0
 27 26  2  0  0  0  0
 28 26  1  0  0  0  0
 29 28  1  0  0  0  0
M  RAD  4   2   2   3   2  10   3  11   2
M  END
