Coordinates from ORCA-job 1g-Schema5-R8-G+-B3LYPG-6-31G_dp-scan-d49-09-n400
 OpenBabel08281819463D

 29 29  0  0  0  0  0  0  0  0999 V2000
   -3.4922   -0.8069   -1.0923 C   0  0  0  0  0  0  0  0  0  0  0  0
   -3.3438   -0.1107    0.0888 C   0  0  0  0  0  0  0  0  0  0  0  0
   -3.9038    0.9772    0.3506 C   0  0  0  0  0  0  0  0  0  0  0  0
   -4.7533    1.7425   -0.4227 C   0  0  0  0  0  0  0  0  0  0  0  0
   -4.9601    1.1115   -1.6676 C   0  0  0  0  0  0  0  0  0  0  0  0
   -4.3434   -0.1173   -2.0013 C   0  0  0  0  0  0  0  0  0  0  0  0
   -3.0692   -1.7733   -1.3425 H   0  0  0  0  0  0  0  0  0  0  0  0
   -5.6122    1.5853   -2.3945 H   0  0  0  0  0  0  0  0  0  0  0  0
   -5.2221    2.6826   -0.1589 H   0  0  0  0  0  0  0  0  0  0  0  0
   -1.0632   -1.1306   -3.1089 N   0  0  0  0  0  0  0  0  0  0  0  0
   -0.9431   -2.0049   -3.7887 N   0  0  0  0  0  0  0  0  0  0  0  0
   -0.8175   -3.0930   -4.6260 C   0  0  0  0  0  0  0  0  0  0  0  0
   -1.9898   -3.6246   -5.1985 C   0  0  0  0  0  0  0  0  0  0  0  0
    0.4792   -3.6020   -4.8493 C   0  0  0  0  0  0  0  0  0  0  0  0
   -1.8345   -4.7231   -6.0336 C   0  0  0  0  0  0  0  0  0  0  0  0
   -2.9511   -3.1723   -4.9798 H   0  0  0  0  0  0  0  0  0  0  0  0
    0.5890   -4.6976   -5.6874 C   0  0  0  0  0  0  0  0  0  0  0  0
    1.3457   -3.1496   -4.3805 H   0  0  0  0  0  0  0  0  0  0  0  0
   -0.5588   -5.2562   -6.2758 C   0  0  0  0  0  0  0  0  0  0  0  0
   -2.7021   -5.1735   -6.5003 H   0  0  0  0  0  0  0  0  0  0  0  0
    1.5541   -5.1420   -5.9037 H   0  0  0  0  0  0  0  0  0  0  0  0
   -0.3508   -6.4491   -7.1726 C   0  0  0  0  0  0  0  0  0  0  0  0
    0.7412   -6.9221   -7.3864 O   0  0  0  0  0  0  0  0  0  0  0  0
   -1.5030   -6.9012   -7.6887 O   0  0  0  0  0  0  0  0  0  0  0  0
   -1.2984   -7.6687   -8.2513 H   0  0  0  0  0  0  0  0  0  0  0  0
   -4.5360   -0.7279   -3.3369 C   0  0  0  0  0  0  0  0  0  0  0  0
   -3.8120   -1.6078   -3.7971 O   0  0  0  0  0  0  0  0  0  0  0  0
   -5.5730   -0.2295   -4.0229 O   0  0  0  0  0  0  0  0  0  0  0  0
   -5.6078   -0.6810   -4.8826 H   0  0  0  0  0  0  0  0  0  0  0  0
  1  2  2  0  0  0  0
  2  3  1  0  0  0  0
  4  9  1  0  0  0  0
  4  3  2  0  0  0  0
  5  4  1  0  0  0  0
  6  5  2  0  0  0  0
  6  1  1  0  0  0  0
  7  1  1  0  0  0  0
  8  5  1  0  0  0  0
 11 10  1  0  0  0  0
 12 11  1  0  0  0  0
 13 16  1  0  0  0  0
 13 12  2  0  0  0  0
 14 12  1  0  0  0  0
 14 18  1  0  0  0  0
 15 13  1  0  0  0  0
 17 14  2  0  0  0  0
 19 15  2  0  0  0  0
 19 17  1  0  0  0  0
 20 15  1  0  0  0  0
 21 17  1  0  0  0  0
 22 19  1  0  0  0  0
 23 22  2  0  0  0  0
 24 22  1  0  0  0  0
 25 24  1  0  0  0  0
 26  6  1  0  0  0  0
 27 26  2  0  0  0  0
 28 26  1  0  0  0  0
 29 28  1  0  0  0  0
M  RAD  4   2   2   3   2  10   3  11   2
M  END
