Coordinates from ORCA-job 1g-Schema5-R8-G+-B3LYPG-6-31G_dp-scan-d49-09-n400
 OpenBabel08281819463D

 29 31  0  0  1  0  0  0  0  0999 V2000
   -4.1067   -1.7601   -1.6697 C   0  0  0  0  0  0  0  0  0  0  0  0
   -3.3548   -2.6968   -2.3405 C   0  0  0  0  0  0  0  0  0  0  0  0
   -3.0535   -2.6743   -3.6846 C   0  0  0  0  0  0  0  0  0  0  0  0
   -3.5402   -1.5998   -4.4339 C   0  0  0  0  0  0  0  0  0  0  0  0
   -4.2925   -0.6046   -3.7977 C   0  0  0  0  0  0  0  0  0  0  0  0
   -4.5807   -0.6789   -2.4299 C   0  0  0  0  0  0  0  0  0  0  0  0
   -4.3305   -1.8305   -0.6107 H   0  0  0  0  0  0  0  0  0  0  0  0
   -4.6546    0.2413   -4.3708 H   0  0  0  0  0  0  0  0  0  0  0  0
   -3.3404   -1.5267   -5.4982 H   0  0  0  0  0  0  0  0  0  0  0  0
   -2.7658   -4.1105   -1.4688 N   0  0  0  0  0  0  0  0  0  0  0  0
   -1.7958   -4.5852   -2.0405 N   0  0  0  0  0  0  0  0  0  0  0  0
   -1.2813   -4.2652   -3.2693 C   0  0  0  0  0  0  0  0  0  0  0  0
   -2.2669   -3.8825   -4.3188 C   0  0  2  0  0  0  0  0  0  0  0  0
    0.0934   -4.2611   -3.4825 C   0  0  0  0  0  0  0  0  0  0  0  0
   -1.6641   -3.6274   -5.6501 C   0  0  0  0  0  0  0  0  0  0  0  0
   -3.0271   -4.6724   -4.4486 H   0  0  0  0  0  0  0  0  0  0  0  0
    0.5654   -3.9085   -4.7397 C   0  0  0  0  0  0  0  0  0  0  0  0
    0.7685   -4.5065   -2.6697 H   0  0  0  0  0  0  0  0  0  0  0  0
   -0.3120   -3.6175   -5.8311 C   0  0  0  0  0  0  0  0  0  0  0  0
   -2.3262   -3.4973   -6.4999 H   0  0  0  0  0  0  0  0  0  0  0  0
    1.6333   -3.8618   -4.9366 H   0  0  0  0  0  0  0  0  0  0  0  0
    0.3342   -3.3411   -7.1625 C   0  0  0  0  0  0  0  0  0  0  0  0
    1.5334   -3.3185   -7.3075 O   0  0  0  0  0  0  0  0  0  0  0  0
   -0.5714   -3.1291   -8.1281 O   0  0  0  0  0  0  0  0  0  0  0  0
   -0.0932   -2.9614   -8.9593 H   0  0  0  0  0  0  0  0  0  0  0  0
   -5.3853    0.3636   -1.7112 C   0  0  0  0  0  0  0  0  0  0  0  0
   -5.6363    0.3075   -0.5288 O   0  0  0  0  0  0  0  0  0  0  0  0
   -5.7855    1.3536   -2.5291 O   0  0  0  0  0  0  0  0  0  0  0  0
   -6.2952    1.9857   -1.9933 H   0  0  0  0  0  0  0  0  0  0  0  0
  1  7  1  0  0  0  0
  2  1  1  0  0  0  0
  2 10  1  0  0  0  0
  3  2  2  0  0  0  0
  4  5  2  0  0  0  0
  4  3  1  0  0  0  0
  5  6  1  0  0  0  0
  6 26  1  0  0  0  0
  6  1  2  0  0  0  0
  8  5  1  0  0  0  0
  9  4  1  0  0  0  0
 11 10  1  0  0  0  0
 12 11  1  0  0  0  0
 13 16  1  6  0  0  0
 13  3  1  0  0  0  0
 13 12  1  0  0  0  0
 14 12  2  0  0  0  0
 14 18  1  0  0  0  0
 15 13  1  0  0  0  0
 17 14  1  0  0  0  0
 19 15  2  0  0  0  0
 19 17  1  0  0  0  0
 20 15  1  0  0  0  0
 21 17  1  0  0  0  0
 22 19  1  0  0  0  0
 23 22  2  0  0  0  0
 24 22  1  0  0  0  0
 25 24  1  0  0  0  0
 26 27  2  0  0  0  0
 28 29  1  0  0  0  0
 28 26  1  0  0  0  0
M  RAD  3  10   2  11   2  17   2
M  END
