Coordinates from ORCA-job 1g-Schema5-R8-G+-B3LYPG-6-31G_dp-scan-d49-09-n400
 OpenBabel08281819463D

 29 29  0  0  0  0  0  0  0  0999 V2000
   -3.5465   -1.3013   -1.7752 C   0  0  0  0  0  0  0  0  0  0  0  0
   -2.8078   -0.5370   -0.8815 C   0  0  0  0  0  0  0  0  0  0  0  0
   -3.0258    0.6905   -0.7353 C   0  0  0  0  0  0  0  0  0  0  0  0
   -3.8975    1.5617   -1.3442 C   0  0  0  0  0  0  0  0  0  0  0  0
   -4.6648    0.8456   -2.2919 C   0  0  0  0  0  0  0  0  0  0  0  0
   -4.4827   -0.5370   -2.5159 C   0  0  0  0  0  0  0  0  0  0  0  0
   -3.4650   -2.3725   -1.9318 H   0  0  0  0  0  0  0  0  0  0  0  0
   -5.4219    1.3765   -2.8602 H   0  0  0  0  0  0  0  0  0  0  0  0
   -4.0348    2.6183   -1.1499 H   0  0  0  0  0  0  0  0  0  0  0  0
   -0.4728   -1.3924   -2.0192 N   0  0  0  0  0  0  0  0  0  0  0  0
   -0.5208   -2.1212   -2.8665 N   0  0  0  0  0  0  0  0  0  0  0  0
   -0.5796   -3.0233   -3.9094 C   0  0  0  0  0  0  0  0  0  0  0  0
   -1.8322   -3.3065   -4.4893 C   0  0  0  0  0  0  0  0  0  0  0  0
    0.6366   -3.6087   -4.3246 C   0  0  0  0  0  0  0  0  0  0  0  0
   -1.8464   -4.2260   -5.5305 C   0  0  0  0  0  0  0  0  0  0  0  0
   -2.7539   -2.8379   -4.1500 H   0  0  0  0  0  0  0  0  0  0  0  0
    0.5775   -4.5184   -5.3649 C   0  0  0  0  0  0  0  0  0  0  0  0
    1.5720   -3.3508   -3.8410 H   0  0  0  0  0  0  0  0  0  0  0  0
   -0.6557   -4.8278   -5.9648 C   0  0  0  0  0  0  0  0  0  0  0  0
   -2.7871   -4.4776   -6.0053 H   0  0  0  0  0  0  0  0  0  0  0  0
    1.4731   -5.0062   -5.7330 H   0  0  0  0  0  0  0  0  0  0  0  0
   -0.6317   -5.8313   -7.0883 C   0  0  0  0  0  0  0  0  0  0  0  0
    0.3877   -6.3557   -7.4730 O   0  0  0  0  0  0  0  0  0  0  0  0
   -1.8540   -6.0585   -7.5904 O   0  0  0  0  0  0  0  0  0  0  0  0
   -1.7667   -6.7118   -8.3067 H   0  0  0  0  0  0  0  0  0  0  0  0
   -5.2209   -1.2556   -3.5926 C   0  0  0  0  0  0  0  0  0  0  0  0
   -4.8382   -2.3082   -4.0827 O   0  0  0  0  0  0  0  0  0  0  0  0
   -6.3371   -0.6313   -3.9907 O   0  0  0  0  0  0  0  0  0  0  0  0
   -6.7351   -1.1615   -4.7027 H   0  0  0  0  0  0  0  0  0  0  0  0
  1  2  2  0  0  0  0
  2  3  1  0  0  0  0
  4  9  1  0  0  0  0
  4  3  2  0  0  0  0
  5  4  1  0  0  0  0
  6  5  2  0  0  0  0
  6  1  1  0  0  0  0
  7  1  1  0  0  0  0
  8  5  1  0  0  0  0
 11 10  1  0  0  0  0
 12 11  1  0  0  0  0
 13 16  1  0  0  0  0
 13 12  2  0  0  0  0
 14 12  1  0  0  0  0
 14 18  1  0  0  0  0
 15 13  1  0  0  0  0
 17 14  2  0  0  0  0
 19 15  2  0  0  0  0
 19 17  1  0  0  0  0
 20 15  1  0  0  0  0
 21 17  1  0  0  0  0
 22 19  1  0  0  0  0
 23 22  2  0  0  0  0
 24 22  1  0  0  0  0
 25 24  1  0  0  0  0
 26  6  1  0  0  0  0
 27 26  2  0  0  0  0
 28 26  1  0  0  0  0
 29 28  1  0  0  0  0
M  RAD  4   2   2   3   2  10   3  11   2
M  END
