Coordinates from ORCA-job 1g-Schema5-R8-G+-B3LYPG-6-31G_dp-scan-d49-09-n400
 OpenBabel08281819463D

 29 31  0  0  1  0  0  0  0  0999 V2000
   -4.0907   -1.7422   -1.6648 C   0  0  0  0  0  0  0  0  0  0  0  0
   -3.3239   -2.6730   -2.3353 C   0  0  0  0  0  0  0  0  0  0  0  0
   -3.0450   -2.6377   -3.6896 C   0  0  0  0  0  0  0  0  0  0  0  0
   -3.5701   -1.5818   -4.4350 C   0  0  0  0  0  0  0  0  0  0  0  0
   -4.3333   -0.5991   -3.7906 C   0  0  0  0  0  0  0  0  0  0  0  0
   -4.5988   -0.6743   -2.4181 C   0  0  0  0  0  0  0  0  0  0  0  0
   -4.3005   -1.8186   -0.6032 H   0  0  0  0  0  0  0  0  0  0  0  0
   -4.7208    0.2375   -4.3609 H   0  0  0  0  0  0  0  0  0  0  0  0
   -3.3890   -1.5058   -5.5023 H   0  0  0  0  0  0  0  0  0  0  0  0
   -2.7547   -4.0054   -1.4811 N   0  0  0  0  0  0  0  0  0  0  0  0
   -1.7798   -4.5252   -2.0256 N   0  0  0  0  0  0  0  0  0  0  0  0
   -1.2729   -4.2378   -3.2685 C   0  0  0  0  0  0  0  0  0  0  0  0
   -2.2449   -3.8292   -4.3182 C   0  0  2  0  0  0  0  0  0  0  0  0
    0.0979   -4.3049   -3.4947 C   0  0  0  0  0  0  0  0  0  0  0  0
   -1.6388   -3.5845   -5.6505 C   0  0  0  0  0  0  0  0  0  0  0  0
   -3.0032   -4.6220   -4.4615 H   0  0  0  0  0  0  0  0  0  0  0  0
    0.5787   -3.9787   -4.7565 C   0  0  0  0  0  0  0  0  0  0  0  0
    0.7654   -4.5814   -2.6855 H   0  0  0  0  0  0  0  0  0  0  0  0
   -0.2892   -3.6407   -5.8415 C   0  0  0  0  0  0  0  0  0  0  0  0
   -2.2994   -3.4122   -6.4939 H   0  0  0  0  0  0  0  0  0  0  0  0
    1.6463   -3.9870   -4.9609 H   0  0  0  0  0  0  0  0  0  0  0  0
    0.3619   -3.3850   -7.1747 C   0  0  0  0  0  0  0  0  0  0  0  0
    1.5601   -3.4161   -7.3260 O   0  0  0  0  0  0  0  0  0  0  0  0
   -0.5382   -3.1201   -8.1323 O   0  0  0  0  0  0  0  0  0  0  0  0
   -0.0574   -2.9654   -8.9647 H   0  0  0  0  0  0  0  0  0  0  0  0
   -5.4178    0.3516   -1.6924 C   0  0  0  0  0  0  0  0  0  0  0  0
   -5.6532    0.2932   -0.5069 O   0  0  0  0  0  0  0  0  0  0  0  0
   -5.8514    1.3292   -2.5083 O   0  0  0  0  0  0  0  0  0  0  0  0
   -6.3692    1.9510   -1.9682 H   0  0  0  0  0  0  0  0  0  0  0  0
  1  7  1  0  0  0  0
  2  1  1  0  0  0  0
  2 10  1  0  0  0  0
  3  2  2  0  0  0  0
  4  5  2  0  0  0  0
  4  3  1  0  0  0  0
  5  6  1  0  0  0  0
  6 26  1  0  0  0  0
  6  1  2  0  0  0  0
  8  5  1  0  0  0  0
  9  4  1  0  0  0  0
 11 10  1  0  0  0  0
 12 11  1  0  0  0  0
 13 16  1  6  0  0  0
 13  3  1  0  0  0  0
 13 12  1  0  0  0  0
 14 12  2  0  0  0  0
 14 18  1  0  0  0  0
 15 13  1  0  0  0  0
 17 14  1  0  0  0  0
 19 15  2  0  0  0  0
 19 17  1  0  0  0  0
 20 15  1  0  0  0  0
 21 17  1  0  0  0  0
 22 19  1  0  0  0  0
 23 22  2  0  0  0  0
 24 22  1  0  0  0  0
 25 24  1  0  0  0  0
 26 27  2  0  0  0  0
 28 29  1  0  0  0  0
 28 26  1  0  0  0  0
M  RAD  3  10   2  11   2  17   2
M  END
