Coordinates from ORCA-job 1g-Schema5-R8-G+-B3LYPG-6-31G_dp-scan-d49-09-n400
 OpenBabel08281819463D

 29 29  0  0  0  0  0  0  0  0999 V2000
   -3.4966   -0.8358   -1.1148 C   0  0  0  0  0  0  0  0  0  0  0  0
   -3.3244   -0.1469    0.0670 C   0  0  0  0  0  0  0  0  0  0  0  0
   -3.8651    0.9485    0.3380 C   0  0  0  0  0  0  0  0  0  0  0  0
   -4.7101    1.7305   -0.4234 C   0  0  0  0  0  0  0  0  0  0  0  0
   -4.9388    1.1082   -1.6689 C   0  0  0  0  0  0  0  0  0  0  0  0
   -4.3448   -0.1286   -2.0131 C   0  0  0  0  0  0  0  0  0  0  0  0
   -3.0934   -1.8079   -1.3724 H   0  0  0  0  0  0  0  0  0  0  0  0
   -5.5902    1.5954   -2.3876 H   0  0  0  0  0  0  0  0  0  0  0  0
   -5.1616    2.6766   -0.1509 H   0  0  0  0  0  0  0  0  0  0  0  0
   -1.0857   -1.1139   -3.1134 N   0  0  0  0  0  0  0  0  0  0  0  0
   -0.9647   -1.9904   -3.7909 N   0  0  0  0  0  0  0  0  0  0  0  0
   -0.8328   -3.0811   -4.6241 C   0  0  0  0  0  0  0  0  0  0  0  0
   -2.0004   -3.6194   -5.2001 C   0  0  0  0  0  0  0  0  0  0  0  0
    0.4669   -3.5860   -4.8398 C   0  0  0  0  0  0  0  0  0  0  0  0
   -1.8369   -4.7203   -6.0305 C   0  0  0  0  0  0  0  0  0  0  0  0
   -2.9647   -3.1703   -4.9880 H   0  0  0  0  0  0  0  0  0  0  0  0
    0.5847   -4.6843   -5.6734 C   0  0  0  0  0  0  0  0  0  0  0  0
    1.3296   -3.1287   -4.3688 H   0  0  0  0  0  0  0  0  0  0  0  0
   -0.5582   -5.2494   -6.2650 C   0  0  0  0  0  0  0  0  0  0  0  0
   -2.7007   -5.1755   -6.4997 H   0  0  0  0  0  0  0  0  0  0  0  0
    1.5526   -5.1257   -5.8837 H   0  0  0  0  0  0  0  0  0  0  0  0
   -0.3416   -6.4445   -7.1568 C   0  0  0  0  0  0  0  0  0  0  0  0
    0.7529   -6.9154   -7.3622 O   0  0  0  0  0  0  0  0  0  0  0  0
   -1.4899   -6.9040   -7.6751 O   0  0  0  0  0  0  0  0  0  0  0  0
   -1.2799   -7.6737   -8.2327 H   0  0  0  0  0  0  0  0  0  0  0  0
   -4.5564   -0.7295   -3.3504 C   0  0  0  0  0  0  0  0  0  0  0  0
   -3.8435   -1.6117   -3.8226 O   0  0  0  0  0  0  0  0  0  0  0  0
   -5.5957   -0.2183   -4.0229 O   0  0  0  0  0  0  0  0  0  0  0  0
   -5.6425   -0.6638   -4.8852 H   0  0  0  0  0  0  0  0  0  0  0  0
  1  2  2  0  0  0  0
  2  3  1  0  0  0  0
  4  9  1  0  0  0  0
  4  3  2  0  0  0  0
  5  4  1  0  0  0  0
  6  5  2  0  0  0  0
  6  1  1  0  0  0  0
  7  1  1  0  0  0  0
  8  5  1  0  0  0  0
 11 10  1  0  0  0  0
 12 11  1  0  0  0  0
 13 16  1  0  0  0  0
 13 12  2  0  0  0  0
 14 12  1  0  0  0  0
 14 18  1  0  0  0  0
 15 13  1  0  0  0  0
 17 14  2  0  0  0  0
 19 15  2  0  0  0  0
 19 17  1  0  0  0  0
 20 15  1  0  0  0  0
 21 17  1  0  0  0  0
 22 19  1  0  0  0  0
 23 22  2  0  0  0  0
 24 22  1  0  0  0  0
 25 24  1  0  0  0  0
 26  6  1  0  0  0  0
 27 26  2  0  0  0  0
 28 26  1  0  0  0  0
 29 28  1  0  0  0  0
M  RAD  4   2   2   3   2  10   3  11   2
M  END
