Coordinates from ORCA-job 1g-Schema5-R8-G+-B3LYPG-6-31G_dp-scan-d49-09-n400
 OpenBabel08281819463D

 29 29  0  0  0  0  0  0  0  0999 V2000
   -3.5192   -0.9337   -1.1810 C   0  0  0  0  0  0  0  0  0  0  0  0
   -3.2987   -0.2866    0.0169 C   0  0  0  0  0  0  0  0  0  0  0  0
   -3.7825    0.8258    0.3236 C   0  0  0  0  0  0  0  0  0  0  0  0
   -4.5988    1.6682   -0.4040 C   0  0  0  0  0  0  0  0  0  0  0  0
   -4.8728    1.0920   -1.6626 C   0  0  0  0  0  0  0  0  0  0  0  0
   -4.3435   -0.1617   -2.0481 C   0  0  0  0  0  0  0  0  0  0  0  0
   -3.1704   -1.9181   -1.4698 H   0  0  0  0  0  0  0  0  0  0  0  0
   -5.5094    1.6288   -2.3588 H   0  0  0  0  0  0  0  0  0  0  0  0
   -5.0017    2.6263   -0.0993 H   0  0  0  0  0  0  0  0  0  0  0  0
   -1.1367   -1.0282   -3.1772 N   0  0  0  0  0  0  0  0  0  0  0  0
   -1.0237   -1.9209   -3.8348 N   0  0  0  0  0  0  0  0  0  0  0  0
   -0.8755   -3.0305   -4.6404 C   0  0  0  0  0  0  0  0  0  0  0  0
   -2.0310   -3.5983   -5.2117 C   0  0  0  0  0  0  0  0  0  0  0  0
    0.4328   -3.5231   -4.8347 C   0  0  0  0  0  0  0  0  0  0  0  0
   -1.8465   -4.7166   -6.0143 C   0  0  0  0  0  0  0  0  0  0  0  0
   -3.0030   -3.1584   -5.0178 H   0  0  0  0  0  0  0  0  0  0  0  0
    0.5714   -4.6396   -5.6402 C   0  0  0  0  0  0  0  0  0  0  0  0
    1.2858   -3.0429   -4.3688 H   0  0  0  0  0  0  0  0  0  0  0  0
   -0.5594   -5.2343   -6.2264 C   0  0  0  0  0  0  0  0  0  0  0  0
   -2.7008   -5.1944   -6.4785 H   0  0  0  0  0  0  0  0  0  0  0  0
    1.5467   -5.0730   -5.8323 H   0  0  0  0  0  0  0  0  0  0  0  0
   -0.3200   -6.4481   -7.0863 C   0  0  0  0  0  0  0  0  0  0  0  0
    0.7823   -6.9094   -7.2714 O   0  0  0  0  0  0  0  0  0  0  0  0
   -1.4579   -6.9360   -7.6014 O   0  0  0  0  0  0  0  0  0  0  0  0
   -1.2334   -7.7169   -8.1373 H   0  0  0  0  0  0  0  0  0  0  0  0
   -4.5998   -0.7155   -3.3986 C   0  0  0  0  0  0  0  0  0  0  0  0
   -3.9289   -1.6098   -3.9066 O   0  0  0  0  0  0  0  0  0  0  0  0
   -5.6292   -0.1456   -4.0382 O   0  0  0  0  0  0  0  0  0  0  0  0
   -5.7079   -0.5653   -4.9113 H   0  0  0  0  0  0  0  0  0  0  0  0
  1  2  2  0  0  0  0
  2  3  1  0  0  0  0
  4  9  1  0  0  0  0
  4  3  2  0  0  0  0
  5  4  1  0  0  0  0
  6  5  2  0  0  0  0
  6  1  1  0  0  0  0
  7  1  1  0  0  0  0
  8  5  1  0  0  0  0
 11 10  1  0  0  0  0
 12 11  1  0  0  0  0
 13 16  1  0  0  0  0
 13 12  2  0  0  0  0
 14 12  1  0  0  0  0
 14 18  1  0  0  0  0
 15 13  1  0  0  0  0
 17 14  2  0  0  0  0
 19 15  2  0  0  0  0
 19 17  1  0  0  0  0
 20 15  1  0  0  0  0
 21 17  1  0  0  0  0
 22 19  1  0  0  0  0
 23 22  2  0  0  0  0
 24 22  1  0  0  0  0
 25 24  1  0  0  0  0
 26  6  1  0  0  0  0
 27 26  2  0  0  0  0
 28 26  1  0  0  0  0
 29 28  1  0  0  0  0
M  RAD  4   2   2   3   2  10   3  11   2
M  END
