Coordinates from ORCA-job 1g-Schema5-R8-G+-B3LYPG-6-31G_dp-scan-d49-09-n400
 OpenBabel08281819463D

 29 29  0  0  0  0  0  0  0  0999 V2000
   -3.4285   -0.5040   -0.9237 C   0  0  0  0  0  0  0  0  0  0  0  0
   -3.5957    0.1335    0.2865 C   0  0  0  0  0  0  0  0  0  0  0  0
   -4.4208    1.0468    0.5108 C   0  0  0  0  0  0  0  0  0  0  0  0
   -5.3328    1.6364   -0.3423 C   0  0  0  0  0  0  0  0  0  0  0  0
   -5.2391    1.0475   -1.6196 C   0  0  0  0  0  0  0  0  0  0  0  0
   -4.3158    0.0131   -1.9090 C   0  0  0  0  0  0  0  0  0  0  0  0
   -2.7422   -1.3108   -1.1527 H   0  0  0  0  0  0  0  0  0  0  0  0
   -5.8944    1.4001   -2.4090 H   0  0  0  0  0  0  0  0  0  0  0  0
   -6.0349    2.4297   -0.1145 H   0  0  0  0  0  0  0  0  0  0  0  0
   -0.6921   -1.1716   -3.1979 N   0  0  0  0  0  0  0  0  0  0  0  0
   -0.6155   -2.0564   -3.8702 N   0  0  0  0  0  0  0  0  0  0  0  0
   -0.6011   -3.1545   -4.7033 C   0  0  0  0  0  0  0  0  0  0  0  0
   -1.8410   -3.6131   -5.1906 C   0  0  0  0  0  0  0  0  0  0  0  0
    0.6415   -3.7461   -5.0072 C   0  0  0  0  0  0  0  0  0  0  0  0
   -1.8148   -4.7241   -6.0224 C   0  0  0  0  0  0  0  0  0  0  0  0
   -2.7515   -3.0944   -4.9101 H   0  0  0  0  0  0  0  0  0  0  0  0
    0.6239   -4.8510   -5.8409 C   0  0  0  0  0  0  0  0  0  0  0  0
    1.5646   -3.3479   -4.6015 H   0  0  0  0  0  0  0  0  0  0  0  0
   -0.5941   -5.3384   -6.3446 C   0  0  0  0  0  0  0  0  0  0  0  0
   -2.7386   -5.1213   -6.4251 H   0  0  0  0  0  0  0  0  0  0  0  0
    1.5417   -5.3575   -6.1183 H   0  0  0  0  0  0  0  0  0  0  0  0
   -0.5237   -6.5469   -7.2419 C   0  0  0  0  0  0  0  0  0  0  0  0
    0.5192   -7.0862   -7.5299 O   0  0  0  0  0  0  0  0  0  0  0  0
   -1.7365   -6.9356   -7.6625 O   0  0  0  0  0  0  0  0  0  0  0  0
   -1.6204   -7.7190   -8.2284 H   0  0  0  0  0  0  0  0  0  0  0  0
   -4.2363   -0.5702   -3.2657 C   0  0  0  0  0  0  0  0  0  0  0  0
   -3.3595   -1.3506   -3.6380 O   0  0  0  0  0  0  0  0  0  0  0  0
   -5.2193   -0.1759   -4.0884 O   0  0  0  0  0  0  0  0  0  0  0  0
   -5.0740   -0.5975   -4.9511 H   0  0  0  0  0  0  0  0  0  0  0  0
  1  2  2  0  0  0  0
  2  3  1  0  0  0  0
  4  9  1  0  0  0  0
  4  3  2  0  0  0  0
  5  4  1  0  0  0  0
  6  5  2  0  0  0  0
  6  1  1  0  0  0  0
  7  1  1  0  0  0  0
  8  5  1  0  0  0  0
 11 10  1  0  0  0  0
 12 11  1  0  0  0  0
 13 16  1  0  0  0  0
 13 12  2  0  0  0  0
 14 12  1  0  0  0  0
 14 18  1  0  0  0  0
 15 13  1  0  0  0  0
 17 14  2  0  0  0  0
 19 15  2  0  0  0  0
 19 17  1  0  0  0  0
 20 15  1  0  0  0  0
 21 17  1  0  0  0  0
 22 19  1  0  0  0  0
 23 22  2  0  0  0  0
 24 22  1  0  0  0  0
 25 24  1  0  0  0  0
 26  6  1  0  0  0  0
 27 26  2  0  0  0  0
 28 26  1  0  0  0  0
 29 28  1  0  0  0  0
M  RAD  4   2   2   3   2  10   3  11   2
M  END
