Coordinates from ORCA-job 1g-Schema5-R8-G+-B3LYPG-6-31G_dp-scan-d49-09-n400
 OpenBabel08281819463D

 29 29  0  0  0  0  0  0  0  0999 V2000
   -3.4365   -0.5154   -0.9229 C   0  0  0  0  0  0  0  0  0  0  0  0
   -3.5726    0.1492    0.2764 C   0  0  0  0  0  0  0  0  0  0  0  0
   -4.3714    1.0877    0.4921 C   0  0  0  0  0  0  0  0  0  0  0  0
   -5.2775    1.6849   -0.3622 C   0  0  0  0  0  0  0  0  0  0  0  0
   -5.2139    1.0695   -1.6289 C   0  0  0  0  0  0  0  0  0  0  0  0
   -4.3208    0.0064   -1.9083 C   0  0  0  0  0  0  0  0  0  0  0  0
   -2.7760   -1.3457   -1.1429 H   0  0  0  0  0  0  0  0  0  0  0  0
   -5.8692    1.4238   -2.4176 H   0  0  0  0  0  0  0  0  0  0  0  0
   -5.9563    2.5002   -0.1418 H   0  0  0  0  0  0  0  0  0  0  0  0
   -0.7433   -1.2035   -3.1561 N   0  0  0  0  0  0  0  0  0  0  0  0
   -0.6536   -2.0787   -3.8395 N   0  0  0  0  0  0  0  0  0  0  0  0
   -0.6238   -3.1666   -4.6852 C   0  0  0  0  0  0  0  0  0  0  0  0
   -1.8564   -3.6321   -5.1845 C   0  0  0  0  0  0  0  0  0  0  0  0
    0.6264   -3.7420   -4.9892 C   0  0  0  0  0  0  0  0  0  0  0  0
   -1.8144   -4.7333   -6.0286 C   0  0  0  0  0  0  0  0  0  0  0  0
   -2.7737   -3.1258   -4.9033 H   0  0  0  0  0  0  0  0  0  0  0  0
    0.6245   -4.8374   -5.8356 C   0  0  0  0  0  0  0  0  0  0  0  0
    1.5432   -3.3392   -4.5741 H   0  0  0  0  0  0  0  0  0  0  0  0
   -0.5859   -5.3315   -6.3512 C   0  0  0  0  0  0  0  0  0  0  0  0
   -2.7320   -5.1352   -6.4407 H   0  0  0  0  0  0  0  0  0  0  0  0
    1.5488   -5.3313   -6.1138 H   0  0  0  0  0  0  0  0  0  0  0  0
   -0.4985   -6.5291   -7.2615 C   0  0  0  0  0  0  0  0  0  0  0  0
    0.5514   -7.0539   -7.5509 O   0  0  0  0  0  0  0  0  0  0  0  0
   -1.7049   -6.9244   -7.6941 O   0  0  0  0  0  0  0  0  0  0  0  0
   -1.5778   -7.6994   -8.2691 H   0  0  0  0  0  0  0  0  0  0  0  0
   -4.2692   -0.6026   -3.2552 C   0  0  0  0  0  0  0  0  0  0  0  0
   -3.4075   -1.4006   -3.6247 O   0  0  0  0  0  0  0  0  0  0  0  0
   -5.2586   -0.2102   -4.0708 O   0  0  0  0  0  0  0  0  0  0  0  0
   -5.1322   -0.6498   -4.9274 H   0  0  0  0  0  0  0  0  0  0  0  0
  1  2  2  0  0  0  0
  2  3  1  0  0  0  0
  4  9  1  0  0  0  0
  4  3  2  0  0  0  0
  5  4  1  0  0  0  0
  6  5  2  0  0  0  0
  6  1  1  0  0  0  0
  7  1  1  0  0  0  0
  8  5  1  0  0  0  0
 11 10  1  0  0  0  0
 12 11  1  0  0  0  0
 13 16  1  0  0  0  0
 13 12  2  0  0  0  0
 14 12  1  0  0  0  0
 14 18  1  0  0  0  0
 15 13  1  0  0  0  0
 17 14  2  0  0  0  0
 19 15  2  0  0  0  0
 19 17  1  0  0  0  0
 20 15  1  0  0  0  0
 21 17  1  0  0  0  0
 22 19  1  0  0  0  0
 23 22  2  0  0  0  0
 24 22  1  0  0  0  0
 25 24  1  0  0  0  0
 26  6  1  0  0  0  0
 27 26  2  0  0  0  0
 28 26  1  0  0  0  0
 29 28  1  0  0  0  0
M  RAD  4   2   2   3   2  10   3  11   2
M  END
