Coordinates from ORCA-job 1g-Schema5-R8-G+-B3LYPG-6-31G_dp-scan-d49-09-n400
 OpenBabel08281819463D

 29 31  0  0  1  0  0  0  0  0999 V2000
   -4.1232   -1.7709   -1.6724 C   0  0  0  0  0  0  0  0  0  0  0  0
   -3.3795   -2.7100   -2.3430 C   0  0  0  0  0  0  0  0  0  0  0  0
   -3.0580   -2.6973   -3.6781 C   0  0  0  0  0  0  0  0  0  0  0  0
   -3.5160   -1.6098   -4.4303 C   0  0  0  0  0  0  0  0  0  0  0  0
   -4.2632   -0.6069   -3.8018 C   0  0  0  0  0  0  0  0  0  0  0  0
   -4.5716   -0.6809   -2.4382 C   0  0  0  0  0  0  0  0  0  0  0  0
   -4.3590   -1.8368   -0.6158 H   0  0  0  0  0  0  0  0  0  0  0  0
   -4.6064    0.2451   -4.3775 H   0  0  0  0  0  0  0  0  0  0  0  0
   -3.2996   -1.5384   -5.4917 H   0  0  0  0  0  0  0  0  0  0  0  0
   -2.7644   -4.1907   -1.4561 N   0  0  0  0  0  0  0  0  0  0  0  0
   -1.7990   -4.6252   -2.0500 N   0  0  0  0  0  0  0  0  0  0  0  0
   -1.2826   -4.2829   -3.2691 C   0  0  0  0  0  0  0  0  0  0  0  0
   -2.2781   -3.9152   -4.3159 C   0  0  2  0  0  0  0  0  0  0  0  0
    0.0926   -4.2349   -3.4764 C   0  0  0  0  0  0  0  0  0  0  0  0
   -1.6793   -3.6543   -5.6475 C   0  0  0  0  0  0  0  0  0  0  0  0
   -3.0390   -4.7037   -4.4366 H   0  0  0  0  0  0  0  0  0  0  0  0
    0.5567   -3.8657   -4.7311 C   0  0  0  0  0  0  0  0  0  0  0  0
    0.7727   -4.4619   -2.6625 H   0  0  0  0  0  0  0  0  0  0  0  0
   -0.3276   -3.6042   -5.8247 C   0  0  0  0  0  0  0  0  0  0  0  0
   -2.3425   -3.5503   -6.5000 H   0  0  0  0  0  0  0  0  0  0  0  0
    1.6230   -3.7856   -4.9251 H   0  0  0  0  0  0  0  0  0  0  0  0
    0.3128   -3.3164   -7.1564 C   0  0  0  0  0  0  0  0  0  0  0  0
    1.5111   -3.2553   -7.2989 O   0  0  0  0  0  0  0  0  0  0  0  0
   -0.5966   -3.1315   -8.1242 O   0  0  0  0  0  0  0  0  0  0  0  0
   -0.1214   -2.9518   -8.9546 H   0  0  0  0  0  0  0  0  0  0  0  0
   -5.3682    0.3724   -1.7261 C   0  0  0  0  0  0  0  0  0  0  0  0
   -5.6340    0.3173   -0.5469 O   0  0  0  0  0  0  0  0  0  0  0  0
   -5.7429    1.3707   -2.5460 O   0  0  0  0  0  0  0  0  0  0  0  0
   -6.2488    2.0095   -2.0146 H   0  0  0  0  0  0  0  0  0  0  0  0
  1  7  1  0  0  0  0
  2  1  1  0  0  0  0
  2 10  1  0  0  0  0
  3  2  2  0  0  0  0
  4  5  2  0  0  0  0
  4  3  1  0  0  0  0
  5  6  1  0  0  0  0
  6 26  1  0  0  0  0
  6  1  2  0  0  0  0
  8  5  1  0  0  0  0
  9  4  1  0  0  0  0
 11 10  1  0  0  0  0
 12 11  1  0  0  0  0
 13 16  1  6  0  0  0
 13  3  1  0  0  0  0
 13 12  1  0  0  0  0
 14 12  2  0  0  0  0
 14 18  1  0  0  0  0
 15 13  1  0  0  0  0
 17 14  1  0  0  0  0
 19 15  2  0  0  0  0
 19 17  1  0  0  0  0
 20 15  1  0  0  0  0
 21 17  1  0  0  0  0
 22 19  1  0  0  0  0
 23 22  2  0  0  0  0
 24 22  1  0  0  0  0
 25 24  1  0  0  0  0
 26 27  2  0  0  0  0
 28 29  1  0  0  0  0
 28 26  1  0  0  0  0
M  RAD  3  10   2  11   2  17   2
M  END
