Coordinates from ORCA-job 1g-Schema5-R8-G+-B3LYPG-6-31G_dp-scan-d49-09-n400
 OpenBabel08281819463D

 29 29  0  0  0  0  0  0  0  0999 V2000
   -3.4930   -0.8117   -1.0961 C   0  0  0  0  0  0  0  0  0  0  0  0
   -3.3401   -0.1168    0.0847 C   0  0  0  0  0  0  0  0  0  0  0  0
   -3.8967    0.9724    0.3482 C   0  0  0  0  0  0  0  0  0  0  0  0
   -4.7458    1.7405   -0.4228 C   0  0  0  0  0  0  0  0  0  0  0  0
   -4.9566    1.1111   -1.6677 C   0  0  0  0  0  0  0  0  0  0  0  0
   -4.3437   -0.1191   -2.0032 C   0  0  0  0  0  0  0  0  0  0  0  0
   -3.0734   -1.7788   -1.3469 H   0  0  0  0  0  0  0  0  0  0  0  0
   -5.6086    1.5872   -2.3931 H   0  0  0  0  0  0  0  0  0  0  0  0
   -5.2114    2.6818   -0.1574 H   0  0  0  0  0  0  0  0  0  0  0  0
   -1.0677   -1.1282   -3.1089 N   0  0  0  0  0  0  0  0  0  0  0  0
   -0.9470   -2.0027   -3.7888 N   0  0  0  0  0  0  0  0  0  0  0  0
   -0.8204   -3.0911   -4.6256 C   0  0  0  0  0  0  0  0  0  0  0  0
   -1.9918   -3.6238   -5.1993 C   0  0  0  0  0  0  0  0  0  0  0  0
    0.4769   -3.5994   -4.8475 C   0  0  0  0  0  0  0  0  0  0  0  0
   -1.8348   -4.7224   -6.0339 C   0  0  0  0  0  0  0  0  0  0  0  0
   -2.9537   -3.1721   -4.9818 H   0  0  0  0  0  0  0  0  0  0  0  0
    0.5882   -4.6952   -5.6851 C   0  0  0  0  0  0  0  0  0  0  0  0
    1.3426   -3.1463   -4.3780 H   0  0  0  0  0  0  0  0  0  0  0  0
   -0.5585   -5.2547   -6.2746 C   0  0  0  0  0  0  0  0  0  0  0  0
   -2.7016   -5.1735   -6.5015 H   0  0  0  0  0  0  0  0  0  0  0  0
    1.5539   -5.1390   -5.9003 H   0  0  0  0  0  0  0  0  0  0  0  0
   -0.3488   -6.4477   -7.1709 C   0  0  0  0  0  0  0  0  0  0  0  0
    0.7435   -6.9213   -7.3818 O   0  0  0  0  0  0  0  0  0  0  0  0
   -1.5004   -6.9021   -7.6863 O   0  0  0  0  0  0  0  0  0  0  0  0
   -1.2949   -7.6707   -8.2471 H   0  0  0  0  0  0  0  0  0  0  0  0
   -4.5397   -0.7281   -3.3389 C   0  0  0  0  0  0  0  0  0  0  0  0
   -3.8174   -1.6082   -3.8011 O   0  0  0  0  0  0  0  0  0  0  0  0
   -5.5771   -0.2277   -4.0227 O   0  0  0  0  0  0  0  0  0  0  0  0
   -5.6139   -0.6782   -4.8828 H   0  0  0  0  0  0  0  0  0  0  0  0
  1  2  2  0  0  0  0
  2  3  1  0  0  0  0
  4  9  1  0  0  0  0
  4  3  2  0  0  0  0
  5  4  1  0  0  0  0
  6  5  2  0  0  0  0
  6  1  1  0  0  0  0
  7  1  1  0  0  0  0
  8  5  1  0  0  0  0
 11 10  1  0  0  0  0
 12 11  1  0  0  0  0
 13 16  1  0  0  0  0
 13 12  2  0  0  0  0
 14 12  1  0  0  0  0
 14 18  1  0  0  0  0
 15 13  1  0  0  0  0
 17 14  2  0  0  0  0
 19 15  2  0  0  0  0
 19 17  1  0  0  0  0
 20 15  1  0  0  0  0
 21 17  1  0  0  0  0
 22 19  1  0  0  0  0
 23 22  2  0  0  0  0
 24 22  1  0  0  0  0
 25 24  1  0  0  0  0
 26  6  1  0  0  0  0
 27 26  2  0  0  0  0
 28 26  1  0  0  0  0
 29 28  1  0  0  0  0
M  RAD  4   2   2   3   2  10   3  11   2
M  END
