Coordinates from ORCA-job 1g-Schema5-R8-G+-B3LYPG-6-31G_dp-scan-d49-09-n400
 OpenBabel08281819463D

 29 29  0  0  0  0  0  0  0  0999 V2000
   -3.4337   -1.2252   -2.0342 C   0  0  0  0  0  0  0  0  0  0  0  0
   -2.5202   -0.4480   -1.3264 C   0  0  0  0  0  0  0  0  0  0  0  0
   -2.7911    0.7692   -1.1412 C   0  0  0  0  0  0  0  0  0  0  0  0
   -3.8016    1.6100   -1.5256 C   0  0  0  0  0  0  0  0  0  0  0  0
   -4.7316    0.8571   -2.2822 C   0  0  0  0  0  0  0  0  0  0  0  0
   -4.5416   -0.5161   -2.5458 C   0  0  0  0  0  0  0  0  0  0  0  0
   -3.3414   -2.2909   -2.2184 H   0  0  0  0  0  0  0  0  0  0  0  0
   -5.6150    1.3566   -2.6672 H   0  0  0  0  0  0  0  0  0  0  0  0
   -3.9298    2.6609   -1.2997 H   0  0  0  0  0  0  0  0  0  0  0  0
   -0.4976   -1.5594   -1.8366 N   0  0  0  0  0  0  0  0  0  0  0  0
   -0.5504   -2.2566   -2.7182 N   0  0  0  0  0  0  0  0  0  0  0  0
   -0.5962   -3.1058   -3.8077 C   0  0  0  0  0  0  0  0  0  0  0  0
   -1.8062   -3.2852   -4.5089 C   0  0  0  0  0  0  0  0  0  0  0  0
    0.6089   -3.7548   -4.1537 C   0  0  0  0  0  0  0  0  0  0  0  0
   -1.7880   -4.1543   -5.5922 C   0  0  0  0  0  0  0  0  0  0  0  0
   -2.7237   -2.7798   -4.2241 H   0  0  0  0  0  0  0  0  0  0  0  0
    0.5877   -4.6114   -5.2406 C   0  0  0  0  0  0  0  0  0  0  0  0
    1.5131   -3.5815   -3.5809 H   0  0  0  0  0  0  0  0  0  0  0  0
   -0.6035   -4.8124   -5.9569 C   0  0  0  0  0  0  0  0  0  0  0  0
   -2.6976   -4.3255   -6.1553 H   0  0  0  0  0  0  0  0  0  0  0  0
    1.4811   -5.1391   -5.5549 H   0  0  0  0  0  0  0  0  0  0  0  0
   -0.5453   -5.7631   -7.1235 C   0  0  0  0  0  0  0  0  0  0  0  0
    0.4667   -6.3415   -7.4456 O   0  0  0  0  0  0  0  0  0  0  0  0
   -1.7298   -5.8801   -7.7420 O   0  0  0  0  0  0  0  0  0  0  0  0
   -1.6203   -6.5049   -8.4802 H   0  0  0  0  0  0  0  0  0  0  0  0
   -5.4425   -1.2869   -3.4533 C   0  0  0  0  0  0  0  0  0  0  0  0
   -5.1130   -2.3376   -3.9774 O   0  0  0  0  0  0  0  0  0  0  0  0
   -6.6312   -0.7009   -3.6517 O   0  0  0  0  0  0  0  0  0  0  0  0
   -7.1381   -1.2587   -4.2670 H   0  0  0  0  0  0  0  0  0  0  0  0
  1  2  2  0  0  0  0
  2  3  1  0  0  0  0
  4  9  1  0  0  0  0
  4  3  2  0  0  0  0
  5  4  1  0  0  0  0
  6  5  2  0  0  0  0
  6  1  1  0  0  0  0
  7  1  1  0  0  0  0
  8  5  1  0  0  0  0
 11 10  1  0  0  0  0
 12 11  1  0  0  0  0
 13 16  1  0  0  0  0
 13 12  2  0  0  0  0
 14 12  1  0  0  0  0
 14 18  1  0  0  0  0
 15 13  1  0  0  0  0
 17 14  2  0  0  0  0
 19 15  2  0  0  0  0
 19 17  1  0  0  0  0
 20 15  1  0  0  0  0
 21 17  1  0  0  0  0
 22 19  1  0  0  0  0
 23 22  2  0  0  0  0
 24 22  1  0  0  0  0
 25 24  1  0  0  0  0
 26  6  1  0  0  0  0
 27 26  2  0  0  0  0
 28 26  1  0  0  0  0
 29 28  1  0  0  0  0
M  RAD  4   2   2   3   2  10   3  11   2
M  END
