Coordinates from ORCA-job 1g-Schema5-R8-G+-B3LYPG-6-31G_dp-scan-d49-09-n400
 OpenBabel08281819463D

 29 29  0  0  0  0  0  0  0  0999 V2000
   -3.6070   -1.1902   -1.3833 C   0  0  0  0  0  0  0  0  0  0  0  0
   -3.1879   -0.6272   -0.1947 C   0  0  0  0  0  0  0  0  0  0  0  0
   -3.4633    0.5369    0.1732 C   0  0  0  0  0  0  0  0  0  0  0  0
   -4.1890    1.5223   -0.4647 C   0  0  0  0  0  0  0  0  0  0  0  0
   -4.6487    1.0408   -1.7101 C   0  0  0  0  0  0  0  0  0  0  0  0
   -4.3586   -0.2656   -2.1647 C   0  0  0  0  0  0  0  0  0  0  0  0
   -3.4484   -2.2082   -1.7211 H   0  0  0  0  0  0  0  0  0  0  0  0
   -5.2443    1.6945   -2.3392 H   0  0  0  0  0  0  0  0  0  0  0  0
   -4.4126    2.5192   -0.1047 H   0  0  0  0  0  0  0  0  0  0  0  0
   -1.3405   -0.9134   -3.1731 N   0  0  0  0  0  0  0  0  0  0  0  0
   -1.2102   -1.8119   -3.8224 N   0  0  0  0  0  0  0  0  0  0  0  0
   -1.0039   -2.9320   -4.6018 C   0  0  0  0  0  0  0  0  0  0  0  0
   -2.1210   -3.5677   -5.1768 C   0  0  0  0  0  0  0  0  0  0  0  0
    0.3291   -3.3688   -4.7626 C   0  0  0  0  0  0  0  0  0  0  0  0
   -1.8717   -4.6979   -5.9449 C   0  0  0  0  0  0  0  0  0  0  0  0
   -3.1159   -3.1676   -5.0157 H   0  0  0  0  0  0  0  0  0  0  0  0
    0.5327   -4.4994   -5.5336 C   0  0  0  0  0  0  0  0  0  0  0  0
    1.1510   -2.8374   -4.2964 H   0  0  0  0  0  0  0  0  0  0  0  0
   -0.5591   -5.1620   -6.1208 C   0  0  0  0  0  0  0  0  0  0  0  0
   -2.6955   -5.2259   -6.4100 H   0  0  0  0  0  0  0  0  0  0  0  0
    1.5301   -4.8924   -5.6972 H   0  0  0  0  0  0  0  0  0  0  0  0
   -0.2493   -6.3872   -6.9408 C   0  0  0  0  0  0  0  0  0  0  0  0
    0.8765   -6.8002   -7.0968 O   0  0  0  0  0  0  0  0  0  0  0  0
   -1.3544   -6.9448   -7.4565 O   0  0  0  0  0  0  0  0  0  0  0  0
   -1.0841   -7.7294   -7.9651 H   0  0  0  0  0  0  0  0  0  0  0  0
   -4.7788   -0.7190   -3.5141 C   0  0  0  0  0  0  0  0  0  0  0  0
   -4.2418   -1.6443   -4.1128 O   0  0  0  0  0  0  0  0  0  0  0  0
   -5.7880   -0.0132   -4.0387 O   0  0  0  0  0  0  0  0  0  0  0  0
   -5.9773   -0.3738   -4.9218 H   0  0  0  0  0  0  0  0  0  0  0  0
  1  2  2  0  0  0  0
  2  3  1  0  0  0  0
  4  9  1  0  0  0  0
  4  3  2  0  0  0  0
  5  4  1  0  0  0  0
  6  5  2  0  0  0  0
  6  1  1  0  0  0  0
  7  1  1  0  0  0  0
  8  5  1  0  0  0  0
 11 10  1  0  0  0  0
 12 11  1  0  0  0  0
 13 16  1  0  0  0  0
 13 12  2  0  0  0  0
 14 12  1  0  0  0  0
 14 18  1  0  0  0  0
 15 13  1  0  0  0  0
 17 14  2  0  0  0  0
 19 15  2  0  0  0  0
 19 17  1  0  0  0  0
 20 15  1  0  0  0  0
 21 17  1  0  0  0  0
 22 19  1  0  0  0  0
 23 22  2  0  0  0  0
 24 22  1  0  0  0  0
 25 24  1  0  0  0  0
 26  6  1  0  0  0  0
 27 26  2  0  0  0  0
 28 26  1  0  0  0  0
 29 28  1  0  0  0  0
M  RAD  4   2   2   3   2  10   3  11   2
M  END
