Coordinates from ORCA-job 1g-Schema5-R8-G+-B3LYPG-6-31G_dp-scan-d49-09-n400
 OpenBabel08281819463D

 29 29  0  0  0  0  0  0  0  0999 V2000
   -3.4542   -1.2574   -1.9513 C   0  0  0  0  0  0  0  0  0  0  0  0
   -2.5771   -0.4711   -1.2095 C   0  0  0  0  0  0  0  0  0  0  0  0
   -2.8307    0.7536   -1.0637 C   0  0  0  0  0  0  0  0  0  0  0  0
   -3.8046    1.5982   -1.5303 C   0  0  0  0  0  0  0  0  0  0  0  0
   -4.6992    0.8417   -2.3240 C   0  0  0  0  0  0  0  0  0  0  0  0
   -4.5167   -0.5405   -2.5456 C   0  0  0  0  0  0  0  0  0  0  0  0
   -3.3680   -2.3285   -2.1048 H   0  0  0  0  0  0  0  0  0  0  0  0
   -5.5513    1.3436   -2.7712 H   0  0  0  0  0  0  0  0  0  0  0  0
   -3.9315    2.6556   -1.3352 H   0  0  0  0  0  0  0  0  0  0  0  0
   -0.4841   -1.5427   -1.8378 N   0  0  0  0  0  0  0  0  0  0  0  0
   -0.5407   -2.2370   -2.7190 N   0  0  0  0  0  0  0  0  0  0  0  0
   -0.5963   -3.0872   -3.8068 C   0  0  0  0  0  0  0  0  0  0  0  0
   -1.8210   -3.2834   -4.4768 C   0  0  0  0  0  0  0  0  0  0  0  0
    0.6104   -3.7178   -4.1806 C   0  0  0  0  0  0  0  0  0  0  0  0
   -1.8158   -4.1529   -5.5600 C   0  0  0  0  0  0  0  0  0  0  0  0
   -2.7398   -2.7910   -4.1713 H   0  0  0  0  0  0  0  0  0  0  0  0
    0.5745   -4.5754   -5.2660 C   0  0  0  0  0  0  0  0  0  0  0  0
    1.5256   -3.5308   -3.6300 H   0  0  0  0  0  0  0  0  0  0  0  0
   -0.6311   -4.7941   -5.9529 C   0  0  0  0  0  0  0  0  0  0  0  0
   -2.7366   -4.3370   -6.1006 H   0  0  0  0  0  0  0  0  0  0  0  0
    1.4674   -5.0906   -5.6020 H   0  0  0  0  0  0  0  0  0  0  0  0
   -0.5870   -5.7447   -7.1203 C   0  0  0  0  0  0  0  0  0  0  0  0
    0.4256   -6.3080   -7.4664 O   0  0  0  0  0  0  0  0  0  0  0  0
   -1.7843   -5.8803   -7.7095 O   0  0  0  0  0  0  0  0  0  0  0  0
   -1.6836   -6.5041   -8.4497 H   0  0  0  0  0  0  0  0  0  0  0  0
   -5.3758   -1.3118   -3.4912 C   0  0  0  0  0  0  0  0  0  0  0  0
   -5.0272   -2.3675   -3.9945 O   0  0  0  0  0  0  0  0  0  0  0  0
   -6.5505   -0.7229   -3.7516 O   0  0  0  0  0  0  0  0  0  0  0  0
   -7.0282   -1.2819   -4.3889 H   0  0  0  0  0  0  0  0  0  0  0  0
  1  2  2  0  0  0  0
  2  3  1  0  0  0  0
  4  9  1  0  0  0  0
  4  3  2  0  0  0  0
  5  4  1  0  0  0  0
  6  5  2  0  0  0  0
  6  1  1  0  0  0  0
  7  1  1  0  0  0  0
  8  5  1  0  0  0  0
 11 10  1  0  0  0  0
 12 11  1  0  0  0  0
 13 16  1  0  0  0  0
 13 12  2  0  0  0  0
 14 12  1  0  0  0  0
 14 18  1  0  0  0  0
 15 13  1  0  0  0  0
 17 14  2  0  0  0  0
 19 15  2  0  0  0  0
 19 17  1  0  0  0  0
 20 15  1  0  0  0  0
 21 17  1  0  0  0  0
 22 19  1  0  0  0  0
 23 22  2  0  0  0  0
 24 22  1  0  0  0  0
 25 24  1  0  0  0  0
 26  6  1  0  0  0  0
 27 26  2  0  0  0  0
 28 26  1  0  0  0  0
 29 28  1  0  0  0  0
M  RAD  4   2   2   3   2  10   3  11   2
M  END
