Coordinates from ORCA-job 1g-Schema5-R8-G+-B3LYPG-6-31G_dp-scan-d49-09-n400
 OpenBabel08281819463D

 29 29  0  0  0  0  0  0  0  0999 V2000
   -3.4519   -0.5676   -0.9423 C   0  0  0  0  0  0  0  0  0  0  0  0
   -3.5070    0.1398    0.2389 C   0  0  0  0  0  0  0  0  0  0  0  0
   -4.2405    1.1316    0.4482 C   0  0  0  0  0  0  0  0  0  0  0  0
   -5.1347    1.7590   -0.3965 C   0  0  0  0  0  0  0  0  0  0  0  0
   -5.1489    1.1040   -1.6451 C   0  0  0  0  0  0  0  0  0  0  0  0
   -4.3310   -0.0191   -1.9178 C   0  0  0  0  0  0  0  0  0  0  0  0
   -2.8557   -1.4475   -1.1537 H   0  0  0  0  0  0  0  0  0  0  0  0
   -5.8062    1.4747   -2.4247 H   0  0  0  0  0  0  0  0  0  0  0  0
   -5.7557    2.6203   -0.1813 H   0  0  0  0  0  0  0  0  0  0  0  0
   -0.8584   -1.2342   -3.1014 N   0  0  0  0  0  0  0  0  0  0  0  0
   -0.7427   -2.0989   -3.7943 N   0  0  0  0  0  0  0  0  0  0  0  0
   -0.6785   -3.1739   -4.6545 C   0  0  0  0  0  0  0  0  0  0  0  0
   -1.8930   -3.6526   -5.1848 C   0  0  0  0  0  0  0  0  0  0  0  0
    0.5873   -3.7235   -4.9420 C   0  0  0  0  0  0  0  0  0  0  0  0
   -1.8152   -4.7402   -6.0439 C   0  0  0  0  0  0  0  0  0  0  0  0
   -2.8246   -3.1667   -4.9148 H   0  0  0  0  0  0  0  0  0  0  0  0
    0.6208   -4.8062   -5.8038 C   0  0  0  0  0  0  0  0  0  0  0  0
    1.4887   -3.3114   -4.5031 H   0  0  0  0  0  0  0  0  0  0  0  0
   -0.5705   -5.3128   -6.3506 C   0  0  0  0  0  0  0  0  0  0  0  0
   -2.7175   -5.1514   -6.4800 H   0  0  0  0  0  0  0  0  0  0  0  0
    1.5588   -5.2803   -6.0706 H   0  0  0  0  0  0  0  0  0  0  0  0
   -0.4447   -6.4949   -7.2765 C   0  0  0  0  0  0  0  0  0  0  0  0
    0.6193   -6.9991   -7.5507 O   0  0  0  0  0  0  0  0  0  0  0  0
   -1.6351   -6.9023   -7.7410 O   0  0  0  0  0  0  0  0  0  0  0  0
   -1.4834   -7.6662   -8.3248 H   0  0  0  0  0  0  0  0  0  0  0  0
   -4.3502   -0.6634   -3.2494 C   0  0  0  0  0  0  0  0  0  0  0  0
   -3.5250   -1.4943   -3.6282 O   0  0  0  0  0  0  0  0  0  0  0  0
   -5.3579   -0.2618   -4.0370 O   0  0  0  0  0  0  0  0  0  0  0  0
   -5.2785   -0.7271   -4.8858 H   0  0  0  0  0  0  0  0  0  0  0  0
  1  2  2  0  0  0  0
  2  3  1  0  0  0  0
  4  9  1  0  0  0  0
  4  3  2  0  0  0  0
  5  4  1  0  0  0  0
  6  5  2  0  0  0  0
  6  1  1  0  0  0  0
  7  1  1  0  0  0  0
  8  5  1  0  0  0  0
 11 10  1  0  0  0  0
 12 11  1  0  0  0  0
 13 16  1  0  0  0  0
 13 12  2  0  0  0  0
 14 12  1  0  0  0  0
 14 18  1  0  0  0  0
 15 13  1  0  0  0  0
 17 14  2  0  0  0  0
 19 15  2  0  0  0  0
 19 17  1  0  0  0  0
 20 15  1  0  0  0  0
 21 17  1  0  0  0  0
 22 19  1  0  0  0  0
 23 22  2  0  0  0  0
 24 22  1  0  0  0  0
 25 24  1  0  0  0  0
 26  6  1  0  0  0  0
 27 26  2  0  0  0  0
 28 26  1  0  0  0  0
 29 28  1  0  0  0  0
M  RAD  4   2   2   3   2  10   3  11   2
M  END
