Coordinates from ORCA-job 1g-Schema5-R8-G+-B3LYPG-6-31G_dp-scan-d49-09-n400
 OpenBabel08281819463D

 29 29  0  0  0  0  0  0  0  0999 V2000
   -3.4647   -0.6277   -0.9720 C   0  0  0  0  0  0  0  0  0  0  0  0
   -3.4510    0.0990    0.1988 C   0  0  0  0  0  0  0  0  0  0  0  0
   -4.1285    1.1294    0.4106 C   0  0  0  0  0  0  0  0  0  0  0  0
   -5.0113    1.7899   -0.4205 C   0  0  0  0  0  0  0  0  0  0  0  0
   -5.0911    1.1190   -1.6584 C   0  0  0  0  0  0  0  0  0  0  0  0
   -4.3380   -0.0473   -1.9342 C   0  0  0  0  0  0  0  0  0  0  0  0
   -2.9247   -1.5432   -1.1829 H   0  0  0  0  0  0  0  0  0  0  0  0
   -5.7493    1.5113   -2.4267 H   0  0  0  0  0  0  0  0  0  0  0  0
   -5.5830    2.6839   -0.2024 H   0  0  0  0  0  0  0  0  0  0  0  0
   -0.9373   -1.2319   -3.0774 N   0  0  0  0  0  0  0  0  0  0  0  0
   -0.8109   -2.0931   -3.7727 N   0  0  0  0  0  0  0  0  0  0  0  0
   -0.7228   -3.1642   -4.6357 C   0  0  0  0  0  0  0  0  0  0  0  0
   -1.9231   -3.6543   -5.1877 C   0  0  0  0  0  0  0  0  0  0  0  0
    0.5539   -3.6984   -4.9046 C   0  0  0  0  0  0  0  0  0  0  0  0
   -1.8184   -4.7372   -6.0501 C   0  0  0  0  0  0  0  0  0  0  0  0
   -2.8650   -3.1811   -4.9311 H   0  0  0  0  0  0  0  0  0  0  0  0
    0.6138   -4.7770   -5.7699 C   0  0  0  0  0  0  0  0  0  0  0  0
    1.4433   -3.2779   -4.4494 H   0  0  0  0  0  0  0  0  0  0  0  0
   -0.5626   -5.2945   -6.3386 C   0  0  0  0  0  0  0  0  0  0  0  0
   -2.7088   -5.1565   -6.5027 H   0  0  0  0  0  0  0  0  0  0  0  0
    1.5614   -5.2394   -6.0229 H   0  0  0  0  0  0  0  0  0  0  0  0
   -0.4081   -6.4711   -7.2673 C   0  0  0  0  0  0  0  0  0  0  0  0
    0.6659   -6.9631   -7.5242 O   0  0  0  0  0  0  0  0  0  0  0  0
   -1.5855   -6.8874   -7.7562 O   0  0  0  0  0  0  0  0  0  0  0  0
   -1.4153   -7.6466   -8.3410 H   0  0  0  0  0  0  0  0  0  0  0  0
   -4.4158   -0.7041   -3.2581 C   0  0  0  0  0  0  0  0  0  0  0  0
   -3.6217   -1.5572   -3.6520 O   0  0  0  0  0  0  0  0  0  0  0  0
   -5.4368   -0.2846   -4.0180 O   0  0  0  0  0  0  0  0  0  0  0  0
   -5.3963   -0.7603   -4.8640 H   0  0  0  0  0  0  0  0  0  0  0  0
  1  2  2  0  0  0  0
  2  3  1  0  0  0  0
  4  9  1  0  0  0  0
  4  3  2  0  0  0  0
  5  4  1  0  0  0  0
  6  5  2  0  0  0  0
  6  1  1  0  0  0  0
  7  1  1  0  0  0  0
  8  5  1  0  0  0  0
 11 10  1  0  0  0  0
 12 11  1  0  0  0  0
 13 16  1  0  0  0  0
 13 12  2  0  0  0  0
 14 12  1  0  0  0  0
 14 18  1  0  0  0  0
 15 13  1  0  0  0  0
 17 14  2  0  0  0  0
 19 15  2  0  0  0  0
 19 17  1  0  0  0  0
 20 15  1  0  0  0  0
 21 17  1  0  0  0  0
 22 19  1  0  0  0  0
 23 22  2  0  0  0  0
 24 22  1  0  0  0  0
 25 24  1  0  0  0  0
 26  6  1  0  0  0  0
 27 26  2  0  0  0  0
 28 26  1  0  0  0  0
 29 28  1  0  0  0  0
M  RAD  4   2   2   3   2  10   3  11   2
M  END
