Coordinates from ORCA-job 1g-Schema5-R8-G+-B3LYPG-6-31G_dp-scan-d49-09-n400
 OpenBabel08281819463D

 29 29  0  0  0  0  0  0  0  0999 V2000
   -3.4389   -0.5225   -0.9251 C   0  0  0  0  0  0  0  0  0  0  0  0
   -3.5611    0.1513    0.2706 C   0  0  0  0  0  0  0  0  0  0  0  0
   -4.3489    1.0995    0.4845 C   0  0  0  0  0  0  0  0  0  0  0  0
   -5.2533    1.7008   -0.3686 C   0  0  0  0  0  0  0  0  0  0  0  0
   -5.2031    1.0767   -1.6317 C   0  0  0  0  0  0  0  0  0  0  0  0
   -4.3226    0.0027   -1.9092 C   0  0  0  0  0  0  0  0  0  0  0  0
   -2.7890   -1.3618   -1.1430 H   0  0  0  0  0  0  0  0  0  0  0  0
   -5.8589    1.4328   -2.4191 H   0  0  0  0  0  0  0  0  0  0  0  0
   -5.9224    2.5245   -0.1498 H   0  0  0  0  0  0  0  0  0  0  0  0
   -0.7648   -1.2115   -3.1443 N   0  0  0  0  0  0  0  0  0  0  0  0
   -0.6699   -2.0846   -3.8296 N   0  0  0  0  0  0  0  0  0  0  0  0
   -0.6336   -3.1695   -4.6790 C   0  0  0  0  0  0  0  0  0  0  0  0
   -1.8630   -3.6373   -5.1841 C   0  0  0  0  0  0  0  0  0  0  0  0
    0.6195   -3.7398   -4.9807 C   0  0  0  0  0  0  0  0  0  0  0  0
   -1.8144   -4.7354   -6.0319 C   0  0  0  0  0  0  0  0  0  0  0  0
   -2.7829   -3.1350   -4.9044 H   0  0  0  0  0  0  0  0  0  0  0  0
    0.6241   -4.8322   -5.8308 C   0  0  0  0  0  0  0  0  0  0  0  0
    1.5336   -3.3354   -4.5610 H   0  0  0  0  0  0  0  0  0  0  0  0
   -0.5828   -5.3284   -6.3523 C   0  0  0  0  0  0  0  0  0  0  0  0
   -2.7293   -5.1389   -6.4485 H   0  0  0  0  0  0  0  0  0  0  0  0
    1.5510   -5.3221   -6.1076 H   0  0  0  0  0  0  0  0  0  0  0  0
   -0.4884   -6.5225   -7.2665 C   0  0  0  0  0  0  0  0  0  0  0  0
    0.5642   -7.0432   -7.5537 O   0  0  0  0  0  0  0  0  0  0  0  0
   -1.6920   -6.9202   -7.7047 O   0  0  0  0  0  0  0  0  0  0  0  0
   -1.5604   -7.6928   -8.2818 H   0  0  0  0  0  0  0  0  0  0  0  0
   -4.2833   -0.6143   -3.2529 C   0  0  0  0  0  0  0  0  0  0  0  0
   -3.4279   -1.4187   -3.6231 O   0  0  0  0  0  0  0  0  0  0  0  0
   -5.2758   -0.2212   -4.0642 O   0  0  0  0  0  0  0  0  0  0  0  0
   -5.1576   -0.6666   -4.9191 H   0  0  0  0  0  0  0  0  0  0  0  0
  1  2  2  0  0  0  0
  2  3  1  0  0  0  0
  4  9  1  0  0  0  0
  4  3  2  0  0  0  0
  5  4  1  0  0  0  0
  6  5  2  0  0  0  0
  6  1  1  0  0  0  0
  7  1  1  0  0  0  0
  8  5  1  0  0  0  0
 11 10  1  0  0  0  0
 12 11  1  0  0  0  0
 13 16  1  0  0  0  0
 13 12  2  0  0  0  0
 14 12  1  0  0  0  0
 14 18  1  0  0  0  0
 15 13  1  0  0  0  0
 17 14  2  0  0  0  0
 19 15  2  0  0  0  0
 19 17  1  0  0  0  0
 20 15  1  0  0  0  0
 21 17  1  0  0  0  0
 22 19  1  0  0  0  0
 23 22  2  0  0  0  0
 24 22  1  0  0  0  0
 25 24  1  0  0  0  0
 26  6  1  0  0  0  0
 27 26  2  0  0  0  0
 28 26  1  0  0  0  0
 29 28  1  0  0  0  0
M  RAD  4   2   2   3   2  10   3  11   2
M  END
