Coordinates from ORCA-job 1g-Schema5-R8-G+-B3LYPG-6-31G_dp-scan-d49-09-n400
 OpenBabel08281819463D

 29 29  0  0  0  0  0  0  0  0999 V2000
   -3.6115   -1.1993   -1.3905 C   0  0  0  0  0  0  0  0  0  0  0  0
   -3.1807   -0.6359   -0.2060 C   0  0  0  0  0  0  0  0  0  0  0  0
   -3.4448    0.5314    0.1596 C   0  0  0  0  0  0  0  0  0  0  0  0
   -4.1659    1.5208   -0.4773 C   0  0  0  0  0  0  0  0  0  0  0  0
   -4.6370    1.0390   -1.7184 C   0  0  0  0  0  0  0  0  0  0  0  0
   -4.3603   -0.2711   -2.1703 C   0  0  0  0  0  0  0  0  0  0  0  0
   -3.4628   -2.2196   -1.7263 H   0  0  0  0  0  0  0  0  0  0  0  0
   -5.2317    1.6953   -2.3457 H   0  0  0  0  0  0  0  0  0  0  0  0
   -4.3797    2.5204   -0.1189 H   0  0  0  0  0  0  0  0  0  0  0  0
   -1.3492   -0.9163   -3.1594 N   0  0  0  0  0  0  0  0  0  0  0  0
   -1.2170   -1.8128   -3.8112 N   0  0  0  0  0  0  0  0  0  0  0  0
   -1.0086   -2.9308   -4.5932 C   0  0  0  0  0  0  0  0  0  0  0  0
   -2.1242   -3.5664   -5.1712 C   0  0  0  0  0  0  0  0  0  0  0  0
    0.3250   -3.3658   -4.7532 C   0  0  0  0  0  0  0  0  0  0  0  0
   -1.8726   -4.6944   -5.9417 C   0  0  0  0  0  0  0  0  0  0  0  0
   -3.1199   -3.1678   -5.0109 H   0  0  0  0  0  0  0  0  0  0  0  0
    0.5309   -4.4944   -5.5266 C   0  0  0  0  0  0  0  0  0  0  0  0
    1.1457   -2.8346   -4.2847 H   0  0  0  0  0  0  0  0  0  0  0  0
   -0.5593   -5.1568   -6.1168 C   0  0  0  0  0  0  0  0  0  0  0  0
   -2.6952   -5.2221   -6.4092 H   0  0  0  0  0  0  0  0  0  0  0  0
    1.5290   -4.8859   -5.6897 H   0  0  0  0  0  0  0  0  0  0  0  0
   -0.2471   -6.3798   -6.9391 C   0  0  0  0  0  0  0  0  0  0  0  0
    0.8794   -6.7908   -7.0953 O   0  0  0  0  0  0  0  0  0  0  0  0
   -1.3509   -6.9368   -7.4585 O   0  0  0  0  0  0  0  0  0  0  0  0
   -1.0789   -7.7195   -7.9692 H   0  0  0  0  0  0  0  0  0  0  0  0
   -4.7899   -0.7248   -3.5169 C   0  0  0  0  0  0  0  0  0  0  0  0
   -4.2578   -1.6515   -4.1176 O   0  0  0  0  0  0  0  0  0  0  0  0
   -5.8011   -0.0177   -4.0357 O   0  0  0  0  0  0  0  0  0  0  0  0
   -5.9959   -0.3781   -4.9177 H   0  0  0  0  0  0  0  0  0  0  0  0
  1  2  2  0  0  0  0
  2  3  1  0  0  0  0
  4  9  1  0  0  0  0
  4  3  2  0  0  0  0
  5  4  1  0  0  0  0
  6  5  2  0  0  0  0
  6  1  1  0  0  0  0
  7  1  1  0  0  0  0
  8  5  1  0  0  0  0
 11 10  1  0  0  0  0
 12 11  1  0  0  0  0
 13 16  1  0  0  0  0
 13 12  2  0  0  0  0
 14 12  1  0  0  0  0
 14 18  1  0  0  0  0
 15 13  1  0  0  0  0
 17 14  2  0  0  0  0
 19 15  2  0  0  0  0
 19 17  1  0  0  0  0
 20 15  1  0  0  0  0
 21 17  1  0  0  0  0
 22 19  1  0  0  0  0
 23 22  2  0  0  0  0
 24 22  1  0  0  0  0
 25 24  1  0  0  0  0
 26  6  1  0  0  0  0
 27 26  2  0  0  0  0
 28 26  1  0  0  0  0
 29 28  1  0  0  0  0
M  RAD  4   2   2   3   2  10   3  11   2
M  END
