Coordinates from ORCA-job 1g-Schema5-R8-G+-B3LYPG-6-31G_dp-scan-d49-09-n400
 OpenBabel08281819463D

 29 29  0  0  0  0  0  0  0  0999 V2000
   -3.4284   -0.5185   -0.9374 C   0  0  0  0  0  0  0  0  0  0  0  0
   -3.6106    0.0888    0.2859 C   0  0  0  0  0  0  0  0  0  0  0  0
   -4.4456    0.9894    0.5249 C   0  0  0  0  0  0  0  0  0  0  0  0
   -5.3562    1.5908   -0.3215 C   0  0  0  0  0  0  0  0  0  0  0  0
   -5.2475    1.0327   -1.6114 C   0  0  0  0  0  0  0  0  0  0  0  0
   -4.3129    0.0133   -1.9173 C   0  0  0  0  0  0  0  0  0  0  0  0
   -2.7326   -1.3129   -1.1801 H   0  0  0  0  0  0  0  0  0  0  0  0
   -5.8997    1.3980   -2.3976 H   0  0  0  0  0  0  0  0  0  0  0  0
   -6.0672    2.3724   -0.0807 H   0  0  0  0  0  0  0  0  0  0  0  0
   -0.6683   -1.1378   -3.2351 N   0  0  0  0  0  0  0  0  0  0  0  0
   -0.5982   -2.0299   -3.8985 N   0  0  0  0  0  0  0  0  0  0  0  0
   -0.5920   -3.1381   -4.7183 C   0  0  0  0  0  0  0  0  0  0  0  0
   -1.8358   -3.5994   -5.1926 C   0  0  0  0  0  0  0  0  0  0  0  0
    0.6473   -3.7370   -5.0217 C   0  0  0  0  0  0  0  0  0  0  0  0
   -1.8173   -4.7210   -6.0103 C   0  0  0  0  0  0  0  0  0  0  0  0
   -2.7435   -3.0748   -4.9142 H   0  0  0  0  0  0  0  0  0  0  0  0
    0.6220   -4.8522   -5.8413 C   0  0  0  0  0  0  0  0  0  0  0  0
    1.5737   -3.3363   -4.6263 H   0  0  0  0  0  0  0  0  0  0  0  0
   -0.6002   -5.3427   -6.3318 C   0  0  0  0  0  0  0  0  0  0  0  0
   -2.7445   -5.1206   -6.4028 H   0  0  0  0  0  0  0  0  0  0  0  0
    1.5368   -5.3647   -6.1176 H   0  0  0  0  0  0  0  0  0  0  0  0
   -0.5382   -6.5625   -7.2143 C   0  0  0  0  0  0  0  0  0  0  0  0
    0.5017   -7.1078   -7.5021 O   0  0  0  0  0  0  0  0  0  0  0  0
   -1.7543   -6.9528   -7.6236 O   0  0  0  0  0  0  0  0  0  0  0  0
   -1.6436   -7.7432   -8.1807 H   0  0  0  0  0  0  0  0  0  0  0  0
   -4.2170   -0.5378   -3.2862 C   0  0  0  0  0  0  0  0  0  0  0  0
   -3.3336   -1.3067   -3.6663 O   0  0  0  0  0  0  0  0  0  0  0  0
   -5.1916   -0.1270   -4.1108 O   0  0  0  0  0  0  0  0  0  0  0  0
   -5.0345   -0.5275   -4.9815 H   0  0  0  0  0  0  0  0  0  0  0  0
  1  2  2  0  0  0  0
  2  3  1  0  0  0  0
  4  9  1  0  0  0  0
  4  3  2  0  0  0  0
  5  4  1  0  0  0  0
  6  5  2  0  0  0  0
  6  1  1  0  0  0  0
  7  1  1  0  0  0  0
  8  5  1  0  0  0  0
 11 10  1  0  0  0  0
 12 11  1  0  0  0  0
 13 16  1  0  0  0  0
 13 12  2  0  0  0  0
 14 12  1  0  0  0  0
 14 18  1  0  0  0  0
 15 13  1  0  0  0  0
 17 14  2  0  0  0  0
 19 15  2  0  0  0  0
 19 17  1  0  0  0  0
 20 15  1  0  0  0  0
 21 17  1  0  0  0  0
 22 19  1  0  0  0  0
 23 22  2  0  0  0  0
 24 22  1  0  0  0  0
 25 24  1  0  0  0  0
 26  6  1  0  0  0  0
 27 26  2  0  0  0  0
 28 26  1  0  0  0  0
 29 28  1  0  0  0  0
M  RAD  4   2   2   3   2  10   3  11   2
M  END
