Coordinates from ORCA-job 1g-Schema5-R8-G+-B3LYPG-6-31G_dp-scan-d49-09-n400
 OpenBabel08281819463D

 29 29  0  0  0  0  0  0  0  0999 V2000
   -3.6843   -1.3067   -1.4749 C   0  0  0  0  0  0  0  0  0  0  0  0
   -3.1668   -0.7689   -0.3123 C   0  0  0  0  0  0  0  0  0  0  0  0
   -3.3249    0.4190    0.0484 C   0  0  0  0  0  0  0  0  0  0  0  0
   -3.9899    1.4562   -0.5726 C   0  0  0  0  0  0  0  0  0  0  0  0
   -4.5447    1.0017   -1.7896 C   0  0  0  0  0  0  0  0  0  0  0  0
   -4.3883   -0.3295   -2.2366 C   0  0  0  0  0  0  0  0  0  0  0  0
   -3.6227   -2.3367   -1.8093 H   0  0  0  0  0  0  0  0  0  0  0  0
   -5.1112    1.6967   -2.4011 H   0  0  0  0  0  0  0  0  0  0  0  0
   -4.1118    2.4726   -0.2179 H   0  0  0  0  0  0  0  0  0  0  0  0
   -1.3729   -0.9063   -3.0620 N   0  0  0  0  0  0  0  0  0  0  0  0
   -1.2097   -1.7889   -3.7274 N   0  0  0  0  0  0  0  0  0  0  0  0
   -0.9967   -2.8964   -4.5222 C   0  0  0  0  0  0  0  0  0  0  0  0
   -2.1191   -3.5401   -5.0783 C   0  0  0  0  0  0  0  0  0  0  0  0
    0.3376   -3.3136   -4.7167 C   0  0  0  0  0  0  0  0  0  0  0  0
   -1.8736   -4.6599   -5.8626 C   0  0  0  0  0  0  0  0  0  0  0  0
   -3.1156   -3.1520   -4.8921 H   0  0  0  0  0  0  0  0  0  0  0  0
    0.5372   -4.4346   -5.5027 C   0  0  0  0  0  0  0  0  0  0  0  0
    1.1629   -2.7762   -4.2638 H   0  0  0  0  0  0  0  0  0  0  0  0
   -0.5594   -5.1055   -6.0716 C   0  0  0  0  0  0  0  0  0  0  0  0
   -2.7010   -5.1935   -6.3146 H   0  0  0  0  0  0  0  0  0  0  0  0
    1.5353   -4.8140   -5.6926 H   0  0  0  0  0  0  0  0  0  0  0  0
   -0.2527   -6.3192   -6.9098 C   0  0  0  0  0  0  0  0  0  0  0  0
    0.8745   -6.7157   -7.0959 O   0  0  0  0  0  0  0  0  0  0  0  0
   -1.3622   -6.8870   -7.4046 O   0  0  0  0  0  0  0  0  0  0  0  0
   -1.0936   -7.6632   -7.9267 H   0  0  0  0  0  0  0  0  0  0  0  0
   -4.9023   -0.7609   -3.5625 C   0  0  0  0  0  0  0  0  0  0  0  0
   -4.4675   -1.7296   -4.1721 O   0  0  0  0  0  0  0  0  0  0  0  0
   -5.8755    0.0193   -4.0490 O   0  0  0  0  0  0  0  0  0  0  0  0
   -6.1329   -0.3333   -4.9182 H   0  0  0  0  0  0  0  0  0  0  0  0
  1  2  2  0  0  0  0
  2  3  1  0  0  0  0
  4  9  1  0  0  0  0
  4  3  2  0  0  0  0
  5  4  1  0  0  0  0
  6  5  2  0  0  0  0
  6  1  1  0  0  0  0
  7  1  1  0  0  0  0
  8  5  1  0  0  0  0
 11 10  1  0  0  0  0
 12 11  1  0  0  0  0
 13 16  1  0  0  0  0
 13 12  2  0  0  0  0
 14 12  1  0  0  0  0
 14 18  1  0  0  0  0
 15 13  1  0  0  0  0
 17 14  2  0  0  0  0
 19 15  2  0  0  0  0
 19 17  1  0  0  0  0
 20 15  1  0  0  0  0
 21 17  1  0  0  0  0
 22 19  1  0  0  0  0
 23 22  2  0  0  0  0
 24 22  1  0  0  0  0
 25 24  1  0  0  0  0
 26  6  1  0  0  0  0
 27 26  2  0  0  0  0
 28 26  1  0  0  0  0
 29 28  1  0  0  0  0
M  RAD  4   2   2   3   2  10   3  11   2
M  END
