Coordinates from ORCA-job 1g-Schema5-R8-G+-B3LYPG-6-31G_dp-scan-d49-09-n400
 OpenBabel08281819463D

 29 29  0  0  0  0  0  0  0  0999 V2000
   -3.5392   -1.3046   -1.7907 C   0  0  0  0  0  0  0  0  0  0  0  0
   -2.7825   -0.5401   -0.9116 C   0  0  0  0  0  0  0  0  0  0  0  0
   -2.9981    0.6883   -0.7660 C   0  0  0  0  0  0  0  0  0  0  0  0
   -3.8759    1.5603   -1.3643 C   0  0  0  0  0  0  0  0  0  0  0  0
   -4.6593    0.8430   -2.2978 C   0  0  0  0  0  0  0  0  0  0  0  0
   -4.4839   -0.5408   -2.5199 C   0  0  0  0  0  0  0  0  0  0  0  0
   -3.4605   -2.3762   -1.9462 H   0  0  0  0  0  0  0  0  0  0  0  0
   -5.4238    1.3740   -2.8561 H   0  0  0  0  0  0  0  0  0  0  0  0
   -4.0077    2.6178   -1.1708 H   0  0  0  0  0  0  0  0  0  0  0  0
   -0.4854   -1.4037   -1.9997 N   0  0  0  0  0  0  0  0  0  0  0  0
   -0.5313   -2.1282   -2.8512 N   0  0  0  0  0  0  0  0  0  0  0  0
   -0.5883   -3.0253   -3.8986 C   0  0  0  0  0  0  0  0  0  0  0  0
   -1.8383   -3.3066   -4.4856 C   0  0  0  0  0  0  0  0  0  0  0  0
    0.6293   -3.6090   -4.3115 C   0  0  0  0  0  0  0  0  0  0  0  0
   -1.8474   -4.2219   -5.5306 C   0  0  0  0  0  0  0  0  0  0  0  0
   -2.7631   -2.8408   -4.1497 H   0  0  0  0  0  0  0  0  0  0  0  0
    0.5755   -4.5145   -5.3558 C   0  0  0  0  0  0  0  0  0  0  0  0
    1.5626   -3.3530   -3.8228 H   0  0  0  0  0  0  0  0  0  0  0  0
   -0.6547   -4.8217   -5.9624 C   0  0  0  0  0  0  0  0  0  0  0  0
   -2.7858   -4.4721   -6.0108 H   0  0  0  0  0  0  0  0  0  0  0  0
    1.4729   -5.0003   -5.7219 H   0  0  0  0  0  0  0  0  0  0  0  0
   -0.6258   -5.8205   -7.0898 C   0  0  0  0  0  0  0  0  0  0  0  0
    0.3951   -6.3440   -7.4718 O   0  0  0  0  0  0  0  0  0  0  0  0
   -1.8461   -6.0472   -7.5970 O   0  0  0  0  0  0  0  0  0  0  0  0
   -1.7556   -6.6982   -8.3149 H   0  0  0  0  0  0  0  0  0  0  0  0
   -5.2362   -1.2616   -3.5857 C   0  0  0  0  0  0  0  0  0  0  0  0
   -4.8607   -2.3165   -4.0757 O   0  0  0  0  0  0  0  0  0  0  0  0
   -6.3551   -0.6355   -3.9734 O   0  0  0  0  0  0  0  0  0  0  0  0
   -6.7626   -1.1669   -4.6791 H   0  0  0  0  0  0  0  0  0  0  0  0
  1  2  2  0  0  0  0
  2  3  1  0  0  0  0
  4  9  1  0  0  0  0
  4  3  2  0  0  0  0
  5  4  1  0  0  0  0
  6  5  2  0  0  0  0
  6  1  1  0  0  0  0
  7  1  1  0  0  0  0
  8  5  1  0  0  0  0
 11 10  1  0  0  0  0
 12 11  1  0  0  0  0
 13 16  1  0  0  0  0
 13 12  2  0  0  0  0
 14 12  1  0  0  0  0
 14 18  1  0  0  0  0
 15 13  1  0  0  0  0
 17 14  2  0  0  0  0
 19 15  2  0  0  0  0
 19 17  1  0  0  0  0
 20 15  1  0  0  0  0
 21 17  1  0  0  0  0
 22 19  1  0  0  0  0
 23 22  2  0  0  0  0
 24 22  1  0  0  0  0
 25 24  1  0  0  0  0
 26  6  1  0  0  0  0
 27 26  2  0  0  0  0
 28 26  1  0  0  0  0
 29 28  1  0  0  0  0
M  RAD  4   2   2   3   2  10   3  11   2
M  END
