Coordinates from ORCA-job 1g-Schema5-R8-G+-B3LYPG-6-31G_dp-scan-d49-09-n400
 OpenBabel08281819463D

 29 29  0  0  0  0  0  0  0  0999 V2000
   -3.4349   -0.5121   -0.9219 C   0  0  0  0  0  0  0  0  0  0  0  0
   -3.5758    0.1501    0.2783 C   0  0  0  0  0  0  0  0  0  0  0  0
   -4.3789    1.0849    0.4942 C   0  0  0  0  0  0  0  0  0  0  0  0
   -5.2860    1.6796   -0.3606 C   0  0  0  0  0  0  0  0  0  0  0  0
   -5.2178    1.0665   -1.6282 C   0  0  0  0  0  0  0  0  0  0  0  0
   -4.3198    0.0076   -1.9079 C   0  0  0  0  0  0  0  0  0  0  0  0
   -2.7702   -1.3391   -1.1424 H   0  0  0  0  0  0  0  0  0  0  0  0
   -5.8732    1.4194   -2.4174 H   0  0  0  0  0  0  0  0  0  0  0  0
   -5.9686    2.4917   -0.1401 H   0  0  0  0  0  0  0  0  0  0  0  0
   -0.7362   -1.2008   -3.1600 N   0  0  0  0  0  0  0  0  0  0  0  0
   -0.6484   -2.0771   -3.8422 N   0  0  0  0  0  0  0  0  0  0  0  0
   -0.6208   -3.1659   -4.6869 C   0  0  0  0  0  0  0  0  0  0  0  0
   -1.8544   -3.6302   -5.1846 C   0  0  0  0  0  0  0  0  0  0  0  0
    0.6284   -3.7432   -4.9915 C   0  0  0  0  0  0  0  0  0  0  0  0
   -1.8146   -4.7322   -6.0277 C   0  0  0  0  0  0  0  0  0  0  0  0
   -2.7707   -3.1224   -4.9030 H   0  0  0  0  0  0  0  0  0  0  0  0
    0.6243   -4.8394   -5.8368 C   0  0  0  0  0  0  0  0  0  0  0  0
    1.5461   -3.3412   -4.5776 H   0  0  0  0  0  0  0  0  0  0  0  0
   -0.5871   -5.3323   -6.3509 C   0  0  0  0  0  0  0  0  0  0  0  0
   -2.7331   -5.1334   -6.4386 H   0  0  0  0  0  0  0  0  0  0  0  0
    1.5478   -5.3347   -6.1155 H   0  0  0  0  0  0  0  0  0  0  0  0
   -0.5021   -6.5309   -7.2602 C   0  0  0  0  0  0  0  0  0  0  0  0
    0.5469   -7.0572   -7.5502 O   0  0  0  0  0  0  0  0  0  0  0  0
   -1.7094   -6.9250   -7.6913 O   0  0  0  0  0  0  0  0  0  0  0  0
   -1.5839   -7.7006   -8.2658 H   0  0  0  0  0  0  0  0  0  0  0  0
   -4.2640   -0.5993   -3.2556 C   0  0  0  0  0  0  0  0  0  0  0  0
   -3.4000   -1.3952   -3.6245 O   0  0  0  0  0  0  0  0  0  0  0  0
   -5.2523   -0.2076   -4.0728 O   0  0  0  0  0  0  0  0  0  0  0  0
   -5.1231   -0.6457   -4.9298 H   0  0  0  0  0  0  0  0  0  0  0  0
  1  2  2  0  0  0  0
  2  3  1  0  0  0  0
  4  9  1  0  0  0  0
  4  3  2  0  0  0  0
  5  4  1  0  0  0  0
  6  5  2  0  0  0  0
  6  1  1  0  0  0  0
  7  1  1  0  0  0  0
  8  5  1  0  0  0  0
 11 10  1  0  0  0  0
 12 11  1  0  0  0  0
 13 16  1  0  0  0  0
 13 12  2  0  0  0  0
 14 12  1  0  0  0  0
 14 18  1  0  0  0  0
 15 13  1  0  0  0  0
 17 14  2  0  0  0  0
 19 15  2  0  0  0  0
 19 17  1  0  0  0  0
 20 15  1  0  0  0  0
 21 17  1  0  0  0  0
 22 19  1  0  0  0  0
 23 22  2  0  0  0  0
 24 22  1  0  0  0  0
 25 24  1  0  0  0  0
 26  6  1  0  0  0  0
 27 26  2  0  0  0  0
 28 26  1  0  0  0  0
 29 28  1  0  0  0  0
M  RAD  4   2   2   3   2  10   3  11   2
M  END
