Coordinates from ORCA-job 1g-Schema5-R8-G+-B3LYPG-6-31G_dp-scan-d49-09-n400
 OpenBabel08281819463D

 29 29  0  0  0  0  0  0  0  0999 V2000
   -3.7567   -1.4285   -1.5632 C   0  0  0  0  0  0  0  0  0  0  0  0
   -3.1245   -0.8905   -0.4572 C   0  0  0  0  0  0  0  0  0  0  0  0
   -3.1636    0.3196   -0.1398 C   0  0  0  0  0  0  0  0  0  0  0  0
   -3.7751    1.3843   -0.7681 C   0  0  0  0  0  0  0  0  0  0  0  0
   -4.4393    0.9301   -1.9302 C   0  0  0  0  0  0  0  0  0  0  0  0
   -4.4211   -0.4259   -2.3261 C   0  0  0  0  0  0  0  0  0  0  0  0
   -3.7924   -2.4712   -1.8607 H   0  0  0  0  0  0  0  0  0  0  0  0
   -4.9847    1.6457   -2.5373 H   0  0  0  0  0  0  0  0  0  0  0  0
   -3.7910    2.4208   -0.4528 H   0  0  0  0  0  0  0  0  0  0  0  0
   -1.3384   -0.9069   -2.8740 N   0  0  0  0  0  0  0  0  0  0  0  0
   -1.1387   -1.7637   -3.5642 N   0  0  0  0  0  0  0  0  0  0  0  0
   -0.9463   -2.8498   -4.3921 C   0  0  0  0  0  0  0  0  0  0  0  0
   -2.0895   -3.4576   -4.9485 C   0  0  0  0  0  0  0  0  0  0  0  0
    0.3769   -3.2818   -4.6213 C   0  0  0  0  0  0  0  0  0  0  0  0
   -1.8752   -4.5577   -5.7690 C   0  0  0  0  0  0  0  0  0  0  0  0
   -3.0816   -3.0636   -4.7387 H   0  0  0  0  0  0  0  0  0  0  0  0
    0.5449   -4.3823   -5.4431 C   0  0  0  0  0  0  0  0  0  0  0  0
    1.2182   -2.7713   -4.1667 H   0  0  0  0  0  0  0  0  0  0  0  0
   -0.5720   -5.0181   -6.0128 C   0  0  0  0  0  0  0  0  0  0  0  0
   -2.7190   -5.0636   -6.2226 H   0  0  0  0  0  0  0  0  0  0  0  0
    1.5330   -4.7720   -5.6612 H   0  0  0  0  0  0  0  0  0  0  0  0
   -0.2996   -6.2112   -6.8916 C   0  0  0  0  0  0  0  0  0  0  0  0
    0.8174   -6.6200   -7.1092 O   0  0  0  0  0  0  0  0  0  0  0  0
   -1.4266   -6.7454   -7.3842 O   0  0  0  0  0  0  0  0  0  0  0  0
   -1.1799   -7.5096   -7.9343 H   0  0  0  0  0  0  0  0  0  0  0  0
   -5.0501   -0.8657   -3.6014 C   0  0  0  0  0  0  0  0  0  0  0  0
   -4.7280   -1.8847   -4.1963 O   0  0  0  0  0  0  0  0  0  0  0  0
   -5.9943   -0.0313   -4.0544 O   0  0  0  0  0  0  0  0  0  0  0  0
   -6.3345   -0.3942   -4.8904 H   0  0  0  0  0  0  0  0  0  0  0  0
  1  2  2  0  0  0  0
  2  3  1  0  0  0  0
  4  9  1  0  0  0  0
  4  3  2  0  0  0  0
  5  4  1  0  0  0  0
  6  5  2  0  0  0  0
  6  1  1  0  0  0  0
  7  1  1  0  0  0  0
  8  5  1  0  0  0  0
 11 10  1  0  0  0  0
 12 11  1  0  0  0  0
 13 16  1  0  0  0  0
 13 12  2  0  0  0  0
 14 12  1  0  0  0  0
 14 18  1  0  0  0  0
 15 13  1  0  0  0  0
 17 14  2  0  0  0  0
 19 15  2  0  0  0  0
 19 17  1  0  0  0  0
 20 15  1  0  0  0  0
 21 17  1  0  0  0  0
 22 19  1  0  0  0  0
 23 22  2  0  0  0  0
 24 22  1  0  0  0  0
 25 24  1  0  0  0  0
 26  6  1  0  0  0  0
 27 26  2  0  0  0  0
 28 26  1  0  0  0  0
 29 28  1  0  0  0  0
M  RAD  4   2   2   3   2  10   3  11   2
M  END
