Coordinates from ORCA-job 1g-Schema5-R8-G+-B3LYPG-6-31G_dp-scan-d49-09-n400
 OpenBabel08281819463D

 29 31  0  0  1  0  0  0  0  0999 V2000
   -4.0647   -1.6349   -1.6283 C   0  0  0  0  0  0  0  0  0  0  0  0
   -3.1619   -2.4908   -2.2870 C   0  0  0  0  0  0  0  0  0  0  0  0
   -2.9454   -2.3824   -3.6838 C   0  0  0  0  0  0  0  0  0  0  0  0
   -3.6413   -1.4240   -4.4068 C   0  0  0  0  0  0  0  0  0  0  0  0
   -4.5176   -0.5553   -3.7412 C   0  0  0  0  0  0  0  0  0  0  0  0
   -4.7367   -0.6605   -2.3569 C   0  0  0  0  0  0  0  0  0  0  0  0
   -4.2275   -1.7423   -0.5609 H   0  0  0  0  0  0  0  0  0  0  0  0
   -5.0354    0.2163   -4.3002 H   0  0  0  0  0  0  0  0  0  0  0  0
   -3.5047   -1.3149   -5.4776 H   0  0  0  0  0  0  0  0  0  0  0  0
   -2.5263   -3.4455   -1.4819 N   0  0  0  0  0  0  0  0  0  0  0  0
   -1.5370   -4.1383   -1.9254 N   0  0  0  0  0  0  0  0  0  0  0  0
   -1.1507   -4.0402   -3.2409 C   0  0  0  0  0  0  0  0  0  0  0  0
   -2.0292   -3.4320   -4.2743 C   0  0  2  0  0  0  0  0  0  0  0  0
    0.0866   -4.5907   -3.5909 C   0  0  0  0  0  0  0  0  0  0  0  0
   -1.4221   -3.2537   -5.6178 C   0  0  0  0  0  0  0  0  0  0  0  0
   -2.7388   -4.2743   -4.5014 H   0  0  0  0  0  0  0  0  0  0  0  0
    0.5591   -4.4442   -4.8854 C   0  0  0  0  0  0  0  0  0  0  0  0
    0.6699   -5.0840   -2.8207 H   0  0  0  0  0  0  0  0  0  0  0  0
   -0.1929   -3.7738   -5.9011 C   0  0  0  0  0  0  0  0  0  0  0  0
   -2.0074   -2.7827   -6.4000 H   0  0  0  0  0  0  0  0  0  0  0  0
    1.5325   -4.8347   -5.1688 H   0  0  0  0  0  0  0  0  0  0  0  0
    0.4436   -3.6656   -7.2608 C   0  0  0  0  0  0  0  0  0  0  0  0
    1.5473   -4.0964   -7.4956 O   0  0  0  0  0  0  0  0  0  0  0  0
   -0.3520   -3.0411   -8.1422 O   0  0  0  0  0  0  0  0  0  0  0  0
    0.1175   -2.9976   -8.9939 H   0  0  0  0  0  0  0  0  0  0  0  0
   -5.6832    0.2408   -1.6177 C   0  0  0  0  0  0  0  0  0  0  0  0
   -5.8826    0.1571   -0.4283 O   0  0  0  0  0  0  0  0  0  0  0  0
   -6.2687    1.1364   -2.4323 O   0  0  0  0  0  0  0  0  0  0  0  0
   -6.8621    1.6836   -1.8891 H   0  0  0  0  0  0  0  0  0  0  0  0
  1  7  1  0  0  0  0
  2  1  1  0  0  0  0
  2 10  1  0  0  0  0
  3  2  2  0  0  0  0
  4  5  2  0  0  0  0
  4  3  1  0  0  0  0
  5  6  1  0  0  0  0
  6  1  2  0  0  0  0
  6 26  1  0  0  0  0
  8  5  1  0  0  0  0
  9  4  1  0  0  0  0
 11 10  2  0  0  0  0
 12 11  1  0  0  0  0
 13 16  1  6  0  0  0
 13  3  1  0  0  0  0
 13 12  1  0  0  0  0
 14 12  2  0  0  0  0
 14 18  1  0  0  0  0
 15 13  1  0  0  0  0
 17 14  1  0  0  0  0
 19 15  2  0  0  0  0
 19 17  1  0  0  0  0
 20 15  1  0  0  0  0
 21 17  1  0  0  0  0
 22 19  1  0  0  0  0
 23 22  2  0  0  0  0
 24 22  1  0  0  0  0
 25 24  1  0  0  0  0
 26 27  2  0  0  0  0
 28 29  1  0  0  0  0
 28 26  1  0  0  0  0
M  RAD  1  17   2
M  END
