Coordinates from ORCA-job 1g-Schema5-R8-G+-B3LYPG-6-31G_dp-scan-d49-09-n400
 OpenBabel08281819463D

 29 29  0  0  0  0  0  0  0  0999 V2000
   -4.0148   -1.3809   -2.0522 C   0  0  0  0  0  0  0  0  0  0  0  0
   -2.7384   -0.9198   -2.4120 C   0  0  0  0  0  0  0  0  0  0  0  0
   -2.6692    0.2754   -2.8389 C   0  0  0  0  0  0  0  0  0  0  0  0
   -3.5285    1.2972   -3.1091 C   0  0  0  0  0  0  0  0  0  0  0  0
   -4.8238    0.8407   -2.7587 C   0  0  0  0  0  0  0  0  0  0  0  0
   -5.0587   -0.4540   -2.2532 C   0  0  0  0  0  0  0  0  0  0  0  0
   -4.2273   -2.3660   -1.6496 H   0  0  0  0  0  0  0  0  0  0  0  0
   -5.6565    1.5266   -2.8800 H   0  0  0  0  0  0  0  0  0  0  0  0
   -3.3207    2.2877   -3.4918 H   0  0  0  0  0  0  0  0  0  0  0  0
   -1.1770   -2.0986   -1.7580 N   0  0  0  0  0  0  0  0  0  0  0  0
   -0.7137   -2.8365   -2.4986 N   0  0  0  0  0  0  0  0  0  0  0  0
   -0.5169   -3.4734   -3.7153 C   0  0  0  0  0  0  0  0  0  0  0  0
   -1.2900   -3.0840   -4.8261 C   0  0  0  0  0  0  0  0  0  0  0  0
    0.4564   -4.4857   -3.7723 C   0  0  0  0  0  0  0  0  0  0  0  0
   -1.0673   -3.7396   -6.0282 C   0  0  0  0  0  0  0  0  0  0  0  0
   -2.0311   -2.2983   -4.7338 H   0  0  0  0  0  0  0  0  0  0  0  0
    0.6575   -5.1246   -4.9869 C   0  0  0  0  0  0  0  0  0  0  0  0
    1.0245   -4.7487   -2.8870 H   0  0  0  0  0  0  0  0  0  0  0  0
   -0.0983   -4.7542   -6.1090 C   0  0  0  0  0  0  0  0  0  0  0  0
   -1.6394   -3.4721   -6.9087 H   0  0  0  0  0  0  0  0  0  0  0  0
    1.3940   -5.9135   -5.0922 H   0  0  0  0  0  0  0  0  0  0  0  0
    0.1775   -5.4890   -7.3932 C   0  0  0  0  0  0  0  0  0  0  0  0
    1.0045   -6.3664   -7.4835 O   0  0  0  0  0  0  0  0  0  0  0  0
   -0.5943   -5.0540   -8.4030 O   0  0  0  0  0  0  0  0  0  0  0  0
   -0.3630   -5.5693   -9.1953 H   0  0  0  0  0  0  0  0  0  0  0  0
   -6.4393   -0.9200   -1.8937 C   0  0  0  0  0  0  0  0  0  0  0  0
   -6.6797   -2.0336   -1.4834 O   0  0  0  0  0  0  0  0  0  0  0  0
   -7.3706    0.0335   -2.0798 O   0  0  0  0  0  0  0  0  0  0  0  0
   -8.2278   -0.3446   -1.8179 H   0  0  0  0  0  0  0  0  0  0  0  0
  1  7  1  0  0  0  0
  2  1  2  0  0  0  0
  3  2  1  0  0  0  0
  4  3  2  0  0  0  0
  4  5  1  0  0  0  0
  5  6  2  0  0  0  0
  6  1  1  0  0  0  0
  6 26  1  0  0  0  0
  8  5  1  0  0  0  0
  9  4  1  0  0  0  0
 11 10  1  0  0  0  0
 12 11  1  0  0  0  0
 13 16  1  0  0  0  0
 13 12  2  0  0  0  0
 14 12  1  0  0  0  0
 14 18  1  0  0  0  0
 15 13  1  0  0  0  0
 17 14  2  0  0  0  0
 19 15  2  0  0  0  0
 19 17  1  0  0  0  0
 20 15  1  0  0  0  0
 21 17  1  0  0  0  0
 22 19  1  0  0  0  0
 23 22  2  0  0  0  0
 24 22  1  0  0  0  0
 25 24  1  0  0  0  0
 26 27  2  0  0  0  0
 28 26  1  0  0  0  0
 28 29  1  0  0  0  0
M  RAD  4   2   2   3   2  10   3  11   2
M  END
