Coordinates from ORCA-job 1g-Schema5-R8-G+-B3LYPG-6-31G_dp-scan-d49-09-n400
 OpenBabel08281819463D

 29 31  0  0  1  0  0  0  0  0999 V2000
   -4.0985   -1.7524   -1.6676 C   0  0  0  0  0  0  0  0  0  0  0  0
   -3.3401   -2.6869   -2.3382 C   0  0  0  0  0  0  0  0  0  0  0  0
   -3.0498   -2.6583   -3.6874 C   0  0  0  0  0  0  0  0  0  0  0  0
   -3.5544   -1.5923   -4.4348 C   0  0  0  0  0  0  0  0  0  0  0  0
   -4.3110   -0.6023   -3.7945 C   0  0  0  0  0  0  0  0  0  0  0  0
   -4.5882   -0.6770   -2.4244 C   0  0  0  0  0  0  0  0  0  0  0  0
   -4.3157   -1.8256   -0.6074 H   0  0  0  0  0  0  0  0  0  0  0  0
   -4.6847    0.2395   -4.3662 H   0  0  0  0  0  0  0  0  0  0  0  0
   -3.3639   -1.5180   -5.5007 H   0  0  0  0  0  0  0  0  0  0  0  0
   -2.7629   -4.0609   -1.4754 N   0  0  0  0  0  0  0  0  0  0  0  0
   -1.7903   -4.5581   -2.0339 N   0  0  0  0  0  0  0  0  0  0  0  0
   -1.2784   -4.2534   -3.2691 C   0  0  0  0  0  0  0  0  0  0  0  0
   -2.2578   -3.8594   -4.3193 C   0  0  2  0  0  0  0  0  0  0  0  0
    0.0952   -4.2802   -3.4875 C   0  0  0  0  0  0  0  0  0  0  0  0
   -1.6532   -3.6086   -5.6508 C   0  0  0  0  0  0  0  0  0  0  0  0
   -3.0175   -4.6503   -4.4553 H   0  0  0  0  0  0  0  0  0  0  0  0
    0.5715   -3.9391   -4.7467 C   0  0  0  0  0  0  0  0  0  0  0  0
    0.7670   -4.5387   -2.6760 H   0  0  0  0  0  0  0  0  0  0  0  0
   -0.3017   -3.6275   -5.8357 C   0  0  0  0  0  0  0  0  0  0  0  0
   -2.3146   -3.4602   -6.4982 H   0  0  0  0  0  0  0  0  0  0  0  0
    1.6397   -3.9161   -4.9464 H   0  0  0  0  0  0  0  0  0  0  0  0
    0.3472   -3.3600   -7.1676 C   0  0  0  0  0  0  0  0  0  0  0  0
    1.5463   -3.3617   -7.3150 O   0  0  0  0  0  0  0  0  0  0  0  0
   -0.5560   -3.1258   -8.1302 O   0  0  0  0  0  0  0  0  0  0  0  0
   -0.0764   -2.9645   -8.9620 H   0  0  0  0  0  0  0  0  0  0  0  0
   -5.3987    0.3582   -1.7022 C   0  0  0  0  0  0  0  0  0  0  0  0
   -5.6421    0.3011   -0.5183 O   0  0  0  0  0  0  0  0  0  0  0  0
   -5.8147    1.3426   -2.5191 O   0  0  0  0  0  0  0  0  0  0  0  0
   -6.3278    1.9701   -1.9811 H   0  0  0  0  0  0  0  0  0  0  0  0
  1  7  1  0  0  0  0
  2  1  1  0  0  0  0
  2 10  1  0  0  0  0
  3  2  2  0  0  0  0
  4  5  2  0  0  0  0
  4  3  1  0  0  0  0
  5  6  1  0  0  0  0
  6 26  1  0  0  0  0
  6  1  2  0  0  0  0
  8  5  1  0  0  0  0
  9  4  1  0  0  0  0
 11 10  1  0  0  0  0
 12 11  1  0  0  0  0
 13 16  1  6  0  0  0
 13  3  1  0  0  0  0
 13 12  1  0  0  0  0
 14 12  2  0  0  0  0
 14 18  1  0  0  0  0
 15 13  1  0  0  0  0
 17 14  1  0  0  0  0
 19 15  2  0  0  0  0
 19 17  1  0  0  0  0
 20 15  1  0  0  0  0
 21 17  1  0  0  0  0
 22 19  1  0  0  0  0
 23 22  2  0  0  0  0
 24 22  1  0  0  0  0
 25 24  1  0  0  0  0
 26 27  2  0  0  0  0
 28 29  1  0  0  0  0
 28 26  1  0  0  0  0
M  RAD  3  10   2  11   2  17   2
M  END
