Coordinates from ORCA-job 1g-Schema5-R8-G+-B3LYPG-6-31G_dp-scan-d49-09-n400
 OpenBabel08281819463D

 29 29  0  0  0  0  0  0  0  0999 V2000
   -3.6091   -1.1929   -1.3849 C   0  0  0  0  0  0  0  0  0  0  0  0
   -3.1862   -0.6287   -0.1980 C   0  0  0  0  0  0  0  0  0  0  0  0
   -3.4572    0.5370    0.1678 C   0  0  0  0  0  0  0  0  0  0  0  0
   -4.1805    1.5235   -0.4711 C   0  0  0  0  0  0  0  0  0  0  0  0
   -4.6448    1.0405   -1.7142 C   0  0  0  0  0  0  0  0  0  0  0  0
   -4.3599   -0.2678   -2.1665 C   0  0  0  0  0  0  0  0  0  0  0  0
   -3.4548   -2.2123   -1.7206 H   0  0  0  0  0  0  0  0  0  0  0  0
   -5.2405    1.6944   -2.3431 H   0  0  0  0  0  0  0  0  0  0  0  0
   -4.4009    2.5216   -0.1124 H   0  0  0  0  0  0  0  0  0  0  0  0
   -1.3405   -0.9157   -3.1656 N   0  0  0  0  0  0  0  0  0  0  0  0
   -1.2103   -1.8131   -3.8164 N   0  0  0  0  0  0  0  0  0  0  0  0
   -1.0043   -2.9321   -4.5975 C   0  0  0  0  0  0  0  0  0  0  0  0
   -2.1213   -3.5667   -5.1740 C   0  0  0  0  0  0  0  0  0  0  0  0
    0.3287   -3.3689   -4.7585 C   0  0  0  0  0  0  0  0  0  0  0  0
   -1.8717   -4.6956   -5.9439 C   0  0  0  0  0  0  0  0  0  0  0  0
   -3.1164   -3.1669   -5.0131 H   0  0  0  0  0  0  0  0  0  0  0  0
    0.5325   -4.4983   -5.5312 C   0  0  0  0  0  0  0  0  0  0  0  0
    1.1505   -2.8384   -4.2912 H   0  0  0  0  0  0  0  0  0  0  0  0
   -0.5592   -5.1597   -6.1199 C   0  0  0  0  0  0  0  0  0  0  0  0
   -2.6953   -5.2227   -6.4103 H   0  0  0  0  0  0  0  0  0  0  0  0
    1.5299   -4.8912   -5.6950 H   0  0  0  0  0  0  0  0  0  0  0  0
   -0.2492   -6.3837   -6.9418 C   0  0  0  0  0  0  0  0  0  0  0  0
    0.8766   -6.7967   -7.0979 O   0  0  0  0  0  0  0  0  0  0  0  0
   -1.3542   -6.9404   -7.4587 O   0  0  0  0  0  0  0  0  0  0  0  0
   -1.0838   -7.7242   -7.9684 H   0  0  0  0  0  0  0  0  0  0  0  0
   -4.7833   -0.7225   -3.5146 C   0  0  0  0  0  0  0  0  0  0  0  0
   -4.2471   -1.6478   -4.1139 O   0  0  0  0  0  0  0  0  0  0  0  0
   -5.7943   -0.0177   -4.0371 O   0  0  0  0  0  0  0  0  0  0  0  0
   -5.9853   -0.3788   -4.9196 H   0  0  0  0  0  0  0  0  0  0  0  0
  1  2  2  0  0  0  0
  2  3  1  0  0  0  0
  4  9  1  0  0  0  0
  4  3  2  0  0  0  0
  5  4  1  0  0  0  0
  6  5  2  0  0  0  0
  6  1  1  0  0  0  0
  7  1  1  0  0  0  0
  8  5  1  0  0  0  0
 11 10  1  0  0  0  0
 12 11  1  0  0  0  0
 13 16  1  0  0  0  0
 13 12  2  0  0  0  0
 14 12  1  0  0  0  0
 14 18  1  0  0  0  0
 15 13  1  0  0  0  0
 17 14  2  0  0  0  0
 19 15  2  0  0  0  0
 19 17  1  0  0  0  0
 20 15  1  0  0  0  0
 21 17  1  0  0  0  0
 22 19  1  0  0  0  0
 23 22  2  0  0  0  0
 24 22  1  0  0  0  0
 25 24  1  0  0  0  0
 26  6  1  0  0  0  0
 27 26  2  0  0  0  0
 28 26  1  0  0  0  0
 29 28  1  0  0  0  0
M  RAD  4   2   2   3   2  10   3  11   2
M  END
