Coordinates from ORCA-job 1g-Schema5-R8-G+-B3LYPG-6-31G_dp-scan-d49-09-n400
 OpenBabel08281819463D

 29 31  0  0  1  0  0  0  0  0999 V2000
   -4.0634   -1.5898   -1.5655 C   0  0  0  0  0  0  0  0  0  0  0  0
   -3.0159   -2.4956   -2.1655 C   0  0  0  0  0  0  0  0  0  0  0  0
   -2.8993   -2.3319   -3.7009 C   0  0  0  0  0  0  0  0  0  0  0  0
   -3.6411   -1.4030   -4.3905 C   0  0  0  0  0  0  0  0  0  0  0  0
   -4.5487   -0.5814   -3.6995 C   0  0  0  0  0  0  0  0  0  0  0  0
   -4.7746   -0.6801   -2.3026 C   0  0  0  0  0  0  0  0  0  0  0  0
   -4.2160   -1.6703   -0.4914 H   0  0  0  0  0  0  0  0  0  0  0  0
   -5.1099    0.1645   -4.2547 H   0  0  0  0  0  0  0  0  0  0  0  0
   -3.5411   -1.2760   -5.4648 H   0  0  0  0  0  0  0  0  0  0  0  0
   -2.4533   -3.0913   -1.6276 N   0  0  0  0  0  0  0  0  0  0  0  0
   -1.3929   -3.9233   -1.9349 N   0  0  0  0  0  0  0  0  0  0  0  0
   -1.1011   -3.9705   -3.2186 C   0  0  0  0  0  0  0  0  0  0  0  0
   -1.9722   -3.3346   -4.2824 C   0  0  2  0  0  0  0  0  0  0  0  0
    0.0540   -4.7045   -3.6368 C   0  0  0  0  0  0  0  0  0  0  0  0
   -1.3425   -3.1621   -5.6269 C   0  0  0  0  0  0  0  0  0  0  0  0
   -2.6852   -4.1800   -4.4830 H   0  0  0  0  0  0  0  0  0  0  0  0
    0.4883   -4.6200   -4.9268 C   0  0  0  0  0  0  0  0  0  0  0  0
    0.5949   -5.2635   -2.8811 H   0  0  0  0  0  0  0  0  0  0  0  0
   -0.1924   -3.8151   -5.9208 C   0  0  0  0  0  0  0  0  0  0  0  0
   -1.8559   -2.5814   -6.3848 H   0  0  0  0  0  0  0  0  0  0  0  0
    1.3880   -5.1354   -5.2479 H   0  0  0  0  0  0  0  0  0  0  0  0
    0.4507   -3.7329   -7.2756 C   0  0  0  0  0  0  0  0  0  0  0  0
    1.4787   -4.3077   -7.5482 O   0  0  0  0  0  0  0  0  0  0  0  0
   -0.2437   -2.9583   -8.1282 O   0  0  0  0  0  0  0  0  0  0  0  0
    0.2350   -2.9524   -8.9753 H   0  0  0  0  0  0  0  0  0  0  0  0
   -5.7770    0.1945   -1.5942 C   0  0  0  0  0  0  0  0  0  0  0  0
   -5.9879    0.1251   -0.4079 O   0  0  0  0  0  0  0  0  0  0  0  0
   -6.3881    1.0377   -2.4434 O   0  0  0  0  0  0  0  0  0  0  0  0
   -7.0195    1.5737   -1.9320 H   0  0  0  0  0  0  0  0  0  0  0  0
  1  7  1  0  0  0  0
  2 10  1  0  0  0  0
  2  1  2  0  0  0  0
  3  2  1  0  0  0  0
  4  3  2  0  0  0  0
  4  5  1  0  0  0  0
  5  6  2  0  0  0  0
  6 26  1  0  0  0  0
  6  1  1  0  0  0  0
  8  5  1  0  0  0  0
  9  4  1  0  0  0  0
 11 10  1  0  0  0  0
 12 11  2  0  0  0  0
 13 16  1  6  0  0  0
 13  3  1  0  0  0  0
 13 12  1  0  0  0  0
 14 12  1  0  0  0  0
 14 18  1  0  0  0  0
 15 13  1  0  0  0  0
 17 14  2  0  0  0  0
 19 15  2  0  0  0  0
 19 17  1  0  0  0  0
 20 15  1  0  0  0  0
 21 17  1  0  0  0  0
 22 19  1  0  0  0  0
 23 22  2  0  0  0  0
 24 22  1  0  0  0  0
 25 24  1  0  0  0  0
 26 27  2  0  0  0  0
 28 29  1  0  0  0  0
 28 26  1  0  0  0  0
M  RAD  1  10   2
M  END
