Coordinates from ORCA-job 1g-Schema5-R8-G+-B3LYPG-6-31G_dp-scan-d49-09-n400
 OpenBabel08281819463D

 29 29  0  0  0  0  0  0  0  0999 V2000
   -3.4545   -0.5793   -0.9476 C   0  0  0  0  0  0  0  0  0  0  0  0
   -3.4952    0.1335    0.2308 C   0  0  0  0  0  0  0  0  0  0  0  0
   -4.2168    1.1341    0.4398 C   0  0  0  0  0  0  0  0  0  0  0  0
   -5.1085    1.7680   -0.4027 C   0  0  0  0  0  0  0  0  0  0  0  0
   -5.1364    1.1082   -1.6486 C   0  0  0  0  0  0  0  0  0  0  0  0
   -4.3322   -0.0248   -1.9209 C   0  0  0  0  0  0  0  0  0  0  0  0
   -2.8703   -1.4673   -1.1579 H   0  0  0  0  0  0  0  0  0  0  0  0
   -5.7937    1.4829   -2.4263 H   0  0  0  0  0  0  0  0  0  0  0  0
   -5.7191    2.6367   -0.1877 H   0  0  0  0  0  0  0  0  0  0  0  0
   -0.8763   -1.2352   -3.0950 N   0  0  0  0  0  0  0  0  0  0  0  0
   -0.7576   -2.0993   -3.7881 N   0  0  0  0  0  0  0  0  0  0  0  0
   -0.6880   -3.1729   -4.6496 C   0  0  0  0  0  0  0  0  0  0  0  0
   -1.8996   -3.6540   -5.1846 C   0  0  0  0  0  0  0  0  0  0  0  0
    0.5802   -3.7189   -4.9335 C   0  0  0  0  0  0  0  0  0  0  0  0
   -1.8159   -4.7401   -6.0451 C   0  0  0  0  0  0  0  0  0  0  0  0
   -2.8334   -3.1711   -4.9171 H   0  0  0  0  0  0  0  0  0  0  0  0
    0.6194   -4.8002   -5.7968 C   0  0  0  0  0  0  0  0  0  0  0  0
    1.4790   -3.3050   -4.4910 H   0  0  0  0  0  0  0  0  0  0  0  0
   -0.5688   -5.3091   -6.3484 C   0  0  0  0  0  0  0  0  0  0  0  0
   -2.7157   -5.1530   -6.4848 H   0  0  0  0  0  0  0  0  0  0  0  0
    1.5595   -5.2715   -6.0610 H   0  0  0  0  0  0  0  0  0  0  0  0
   -0.4368   -6.4896   -7.2755 C   0  0  0  0  0  0  0  0  0  0  0  0
    0.6296   -6.9899   -7.5475 O   0  0  0  0  0  0  0  0  0  0  0  0
   -1.6243   -6.8977   -7.7466 O   0  0  0  0  0  0  0  0  0  0  0  0
   -1.4685   -7.6596   -8.3320 H   0  0  0  0  0  0  0  0  0  0  0  0
   -4.3640   -0.6735   -3.2502 C   0  0  0  0  0  0  0  0  0  0  0  0
   -3.5450   -1.5092   -3.6314 O   0  0  0  0  0  0  0  0  0  0  0  0
   -5.3751   -0.2697   -4.0321 O   0  0  0  0  0  0  0  0  0  0  0  0
   -5.3040   -0.7384   -4.8799 H   0  0  0  0  0  0  0  0  0  0  0  0
  1  2  2  0  0  0  0
  2  3  1  0  0  0  0
  4  9  1  0  0  0  0
  4  3  2  0  0  0  0
  5  4  1  0  0  0  0
  6  5  2  0  0  0  0
  6  1  1  0  0  0  0
  7  1  1  0  0  0  0
  8  5  1  0  0  0  0
 11 10  1  0  0  0  0
 12 11  1  0  0  0  0
 13 16  1  0  0  0  0
 13 12  2  0  0  0  0
 14 12  1  0  0  0  0
 14 18  1  0  0  0  0
 15 13  1  0  0  0  0
 17 14  2  0  0  0  0
 19 15  2  0  0  0  0
 19 17  1  0  0  0  0
 20 15  1  0  0  0  0
 21 17  1  0  0  0  0
 22 19  1  0  0  0  0
 23 22  2  0  0  0  0
 24 22  1  0  0  0  0
 25 24  1  0  0  0  0
 26  6  1  0  0  0  0
 27 26  2  0  0  0  0
 28 26  1  0  0  0  0
 29 28  1  0  0  0  0
M  RAD  4   2   2   3   2  10   3  11   2
M  END
