Coordinates from ORCA-job 1g-Schema5-R8-G+-B3LYPG-6-31G_dp-scan-d49-09-n400
 OpenBabel08281819463D

 29 31  0  0  1  0  0  0  0  0999 V2000
   -4.0641   -1.5886   -1.5623 C   0  0  0  0  0  0  0  0  0  0  0  0
   -3.0125   -2.4979   -2.1603 C   0  0  0  0  0  0  0  0  0  0  0  0
   -2.8996   -2.3322   -3.7027 C   0  0  0  0  0  0  0  0  0  0  0  0
   -3.6420   -1.4035   -4.3912 C   0  0  0  0  0  0  0  0  0  0  0  0
   -4.5490   -0.5826   -3.6983 C   0  0  0  0  0  0  0  0  0  0  0  0
   -4.7749   -0.6804   -2.3007 C   0  0  0  0  0  0  0  0  0  0  0  0
   -4.2177   -1.6671   -0.4880 H   0  0  0  0  0  0  0  0  0  0  0  0
   -5.1110    0.1632   -4.2530 H   0  0  0  0  0  0  0  0  0  0  0  0
   -3.5439   -1.2754   -5.4657 H   0  0  0  0  0  0  0  0  0  0  0  0
   -2.4519   -3.0879   -1.6322 N   0  0  0  0  0  0  0  0  0  0  0  0
   -1.3896   -3.9226   -1.9348 N   0  0  0  0  0  0  0  0  0  0  0  0
   -1.1003   -3.9707   -3.2181 C   0  0  0  0  0  0  0  0  0  0  0  0
   -1.9724   -3.3349   -4.2829 C   0  0  2  0  0  0  0  0  0  0  0  0
    0.0543   -4.7062   -3.6377 C   0  0  0  0  0  0  0  0  0  0  0  0
   -1.3419   -3.1622   -5.6273 C   0  0  0  0  0  0  0  0  0  0  0  0
   -2.6859   -4.1801   -4.4828 H   0  0  0  0  0  0  0  0  0  0  0  0
    0.4879   -4.6219   -4.9275 C   0  0  0  0  0  0  0  0  0  0  0  0
    0.5949   -5.2659   -2.8824 H   0  0  0  0  0  0  0  0  0  0  0  0
   -0.1923   -3.8155   -5.9212 C   0  0  0  0  0  0  0  0  0  0  0  0
   -1.8546   -2.5804   -6.3848 H   0  0  0  0  0  0  0  0  0  0  0  0
    1.3868   -5.1382   -5.2490 H   0  0  0  0  0  0  0  0  0  0  0  0
    0.4512   -3.7327   -7.2758 C   0  0  0  0  0  0  0  0  0  0  0  0
    1.4784   -4.3087   -7.5489 O   0  0  0  0  0  0  0  0  0  0  0  0
   -0.2418   -2.9563   -8.1278 O   0  0  0  0  0  0  0  0  0  0  0  0
    0.2372   -2.9504   -8.9747 H   0  0  0  0  0  0  0  0  0  0  0  0
   -5.7780    0.1951   -1.5941 C   0  0  0  0  0  0  0  0  0  0  0  0
   -5.9897    0.1273   -0.4079 O   0  0  0  0  0  0  0  0  0  0  0  0
   -6.3887    1.0371   -2.4449 O   0  0  0  0  0  0  0  0  0  0  0  0
   -7.0205    1.5737   -1.9347 H   0  0  0  0  0  0  0  0  0  0  0  0
  1  7  1  0  0  0  0
  2 10  1  0  0  0  0
  2  1  2  0  0  0  0
  3  2  1  0  0  0  0
  4  3  2  0  0  0  0
  4  5  1  0  0  0  0
  5  6  2  0  0  0  0
  6 26  1  0  0  0  0
  6  1  1  0  0  0  0
  8  5  1  0  0  0  0
  9  4  1  0  0  0  0
 11 10  1  0  0  0  0
 12 11  2  0  0  0  0
 13 16  1  6  0  0  0
 13  3  1  0  0  0  0
 13 12  1  0  0  0  0
 14 12  1  0  0  0  0
 14 18  1  0  0  0  0
 15 13  1  0  0  0  0
 17 14  2  0  0  0  0
 19 15  2  0  0  0  0
 19 17  1  0  0  0  0
 20 15  1  0  0  0  0
 21 17  1  0  0  0  0
 22 19  1  0  0  0  0
 23 22  2  0  0  0  0
 24 22  1  0  0  0  0
 25 24  1  0  0  0  0
 26 27  2  0  0  0  0
 28 29  1  0  0  0  0
 28 26  1  0  0  0  0
M  RAD  1  10   2
M  END
