Coordinates from ORCA-job 1g-Schema5-R8-G+-B3LYPG-6-31G_dp-scan-d49-09-n400
 OpenBabel08281819463D

 29 29  0  0  0  0  0  0  0  0999 V2000
   -3.5450   -1.0531   -1.2788 C   0  0  0  0  0  0  0  0  0  0  0  0
   -3.2420   -0.4524   -0.0743 C   0  0  0  0  0  0  0  0  0  0  0  0
   -3.6430    0.6805    0.2745 C   0  0  0  0  0  0  0  0  0  0  0  0
   -4.4277    1.5916   -0.4034 C   0  0  0  0  0  0  0  0  0  0  0  0
   -4.7793    1.0670   -1.6658 C   0  0  0  0  0  0  0  0  0  0  0  0
   -4.3446   -0.2069   -2.0990 C   0  0  0  0  0  0  0  0  0  0  0  0
   -3.2736   -2.0516   -1.6016 H   0  0  0  0  0  0  0  0  0  0  0  0
   -5.4028    1.6608   -2.3266 H   0  0  0  0  0  0  0  0  0  0  0  0
   -4.7600    2.5641   -0.0613 H   0  0  0  0  0  0  0  0  0  0  0  0
   -1.2294   -0.9475   -3.2200 N   0  0  0  0  0  0  0  0  0  0  0  0
   -1.1121   -1.8511   -3.8628 N   0  0  0  0  0  0  0  0  0  0  0  0
   -0.9373   -2.9750   -4.6436 C   0  0  0  0  0  0  0  0  0  0  0  0
   -2.0741   -3.5761   -5.2182 C   0  0  0  0  0  0  0  0  0  0  0  0
    0.3822   -3.4487   -4.8092 C   0  0  0  0  0  0  0  0  0  0  0  0
   -1.8586   -4.7087   -5.9926 C   0  0  0  0  0  0  0  0  0  0  0  0
   -3.0565   -3.1493   -5.0496 H   0  0  0  0  0  0  0  0  0  0  0  0
    0.5517   -4.5804   -5.5868 C   0  0  0  0  0  0  0  0  0  0  0  0
    1.2200   -2.9431   -4.3427 H   0  0  0  0  0  0  0  0  0  0  0  0
   -0.5599   -5.2084   -6.1747 C   0  0  0  0  0  0  0  0  0  0  0  0
   -2.6980   -5.2114   -6.4578 H   0  0  0  0  0  0  0  0  0  0  0  0
    1.5371   -5.0007   -5.7551 H   0  0  0  0  0  0  0  0  0  0  0  0
   -0.2871   -6.4373   -7.0026 C   0  0  0  0  0  0  0  0  0  0  0  0
    0.8259   -6.8817   -7.1631 O   0  0  0  0  0  0  0  0  0  0  0  0
   -1.4086   -6.9573   -7.5223 O   0  0  0  0  0  0  0  0  0  0  0  0
   -1.1622   -7.7457   -8.0372 H   0  0  0  0  0  0  0  0  0  0  0  0
   -4.6716   -0.7052   -3.4570 C   0  0  0  0  0  0  0  0  0  0  0  0
   -4.0543   -1.6066   -4.0159 O   0  0  0  0  0  0  0  0  0  0  0  0
   -5.6975   -0.0726   -4.0402 O   0  0  0  0  0  0  0  0  0  0  0  0
   -5.8236   -0.4588   -4.9234 H   0  0  0  0  0  0  0  0  0  0  0  0
  1  2  2  0  0  0  0
  2  3  1  0  0  0  0
  4  9  1  0  0  0  0
  4  3  2  0  0  0  0
  5  4  1  0  0  0  0
  6  5  2  0  0  0  0
  6  1  1  0  0  0  0
  7  1  1  0  0  0  0
  8  5  1  0  0  0  0
 11 10  1  0  0  0  0
 12 11  1  0  0  0  0
 13 16  1  0  0  0  0
 13 12  2  0  0  0  0
 14 12  1  0  0  0  0
 14 18  1  0  0  0  0
 15 13  1  0  0  0  0
 17 14  2  0  0  0  0
 19 15  2  0  0  0  0
 19 17  1  0  0  0  0
 20 15  1  0  0  0  0
 21 17  1  0  0  0  0
 22 19  1  0  0  0  0
 23 22  2  0  0  0  0
 24 22  1  0  0  0  0
 25 24  1  0  0  0  0
 26  6  1  0  0  0  0
 27 26  2  0  0  0  0
 28 26  1  0  0  0  0
 29 28  1  0  0  0  0
M  RAD  4   2   2   3   2  10   3  11   2
M  END
