Coordinates from ORCA-job 1g-Schema5-R8-G+-B3LYPG-6-31G_dp-scan-d49-09-n400
 OpenBabel08281819463D

 29 29  0  0  0  0  0  0  0  0999 V2000
   -3.4612   -0.6094   -0.9624 C   0  0  0  0  0  0  0  0  0  0  0  0
   -3.4672    0.1131    0.2110 C   0  0  0  0  0  0  0  0  0  0  0  0
   -4.1606    1.1331    0.4214 C   0  0  0  0  0  0  0  0  0  0  0  0
   -5.0467    1.7837   -0.4141 C   0  0  0  0  0  0  0  0  0  0  0  0
   -5.1078    1.1159   -1.6547 C   0  0  0  0  0  0  0  0  0  0  0  0
   -4.3362   -0.0388   -1.9288 C   0  0  0  0  0  0  0  0  0  0  0  0
   -2.9051   -1.5153   -1.1729 H   0  0  0  0  0  0  0  0  0  0  0  0
   -5.7657    1.5015   -2.4266 H   0  0  0  0  0  0  0  0  0  0  0  0
   -5.6325    2.6689   -0.1975 H   0  0  0  0  0  0  0  0  0  0  0  0
   -0.9159   -1.2349   -3.0825 N   0  0  0  0  0  0  0  0  0  0  0  0
   -0.7916   -2.0965   -3.7776 N   0  0  0  0  0  0  0  0  0  0  0  0
   -0.7101   -3.1682   -4.6406 C   0  0  0  0  0  0  0  0  0  0  0  0
   -1.9144   -3.6548   -5.1868 C   0  0  0  0  0  0  0  0  0  0  0  0
    0.5636   -3.7065   -4.9150 C   0  0  0  0  0  0  0  0  0  0  0  0
   -1.8172   -4.7385   -6.0490 C   0  0  0  0  0  0  0  0  0  0  0  0
   -2.8534   -3.1781   -4.9261 H   0  0  0  0  0  0  0  0  0  0  0  0
    0.6162   -4.7857   -5.7801 C   0  0  0  0  0  0  0  0  0  0  0  0
    1.4564   -3.2885   -4.4641 H   0  0  0  0  0  0  0  0  0  0  0  0
   -0.5644   -5.2998   -6.3430 C   0  0  0  0  0  0  0  0  0  0  0  0
   -2.7109   -5.1553   -6.4973 H   0  0  0  0  0  0  0  0  0  0  0  0
    1.5612   -5.2512   -6.0374 H   0  0  0  0  0  0  0  0  0  0  0  0
   -0.4179   -6.4774   -7.2718 C   0  0  0  0  0  0  0  0  0  0  0  0
    0.6533   -6.9728   -7.5336 O   0  0  0  0  0  0  0  0  0  0  0  0
   -1.5991   -6.8912   -7.7537 O   0  0  0  0  0  0  0  0  0  0  0  0
   -1.4341   -7.6516   -8.3386 H   0  0  0  0  0  0  0  0  0  0  0  0
   -4.3974   -0.6934   -3.2545 C   0  0  0  0  0  0  0  0  0  0  0  0
   -3.5943   -1.5404   -3.6437 O   0  0  0  0  0  0  0  0  0  0  0  0
   -5.4152   -0.2801   -4.0224 O   0  0  0  0  0  0  0  0  0  0  0  0
   -5.3637   -0.7537   -4.8689 H   0  0  0  0  0  0  0  0  0  0  0  0
  1  2  2  0  0  0  0
  2  3  1  0  0  0  0
  4  9  1  0  0  0  0
  4  3  2  0  0  0  0
  5  4  1  0  0  0  0
  6  5  2  0  0  0  0
  6  1  1  0  0  0  0
  7  1  1  0  0  0  0
  8  5  1  0  0  0  0
 11 10  1  0  0  0  0
 12 11  1  0  0  0  0
 13 16  1  0  0  0  0
 13 12  2  0  0  0  0
 14 12  1  0  0  0  0
 14 18  1  0  0  0  0
 15 13  1  0  0  0  0
 17 14  2  0  0  0  0
 19 15  2  0  0  0  0
 19 17  1  0  0  0  0
 20 15  1  0  0  0  0
 21 17  1  0  0  0  0
 22 19  1  0  0  0  0
 23 22  2  0  0  0  0
 24 22  1  0  0  0  0
 25 24  1  0  0  0  0
 26  6  1  0  0  0  0
 27 26  2  0  0  0  0
 28 26  1  0  0  0  0
 29 28  1  0  0  0  0
M  RAD  4   2   2   3   2  10   3  11   2
M  END
