Coordinates from ORCA-job 1g-Schema5-R8-G+-B3LYPG-6-31G_dp-scan-d49-09-n400
 OpenBabel08281819463D

 29 29  0  0  0  0  0  0  0  0999 V2000
   -3.4378   -0.5200   -0.9244 C   0  0  0  0  0  0  0  0  0  0  0  0
   -3.5650    0.1505    0.2726 C   0  0  0  0  0  0  0  0  0  0  0  0
   -4.3568    1.0952    0.4871 C   0  0  0  0  0  0  0  0  0  0  0  0
   -5.2617    1.6951   -0.3664 C   0  0  0  0  0  0  0  0  0  0  0  0
   -5.2068    1.0740   -1.6308 C   0  0  0  0  0  0  0  0  0  0  0  0
   -4.3218    0.0039   -1.9090 C   0  0  0  0  0  0  0  0  0  0  0  0
   -2.7842   -1.3562   -1.1429 H   0  0  0  0  0  0  0  0  0  0  0  0
   -5.8625    1.4294   -2.4186 H   0  0  0  0  0  0  0  0  0  0  0  0
   -5.9344    2.5157   -0.1470 H   0  0  0  0  0  0  0  0  0  0  0  0
   -0.7576   -1.2087   -3.1482 N   0  0  0  0  0  0  0  0  0  0  0  0
   -0.6645   -2.0827   -3.8326 N   0  0  0  0  0  0  0  0  0  0  0  0
   -0.6304   -3.1685   -4.6810 C   0  0  0  0  0  0  0  0  0  0  0  0
   -1.8609   -3.6352   -5.1845 C   0  0  0  0  0  0  0  0  0  0  0  0
    0.6217   -3.7405   -4.9835 C   0  0  0  0  0  0  0  0  0  0  0  0
   -1.8145   -4.7341   -6.0312 C   0  0  0  0  0  0  0  0  0  0  0  0
   -2.7799   -3.1315   -4.9042 H   0  0  0  0  0  0  0  0  0  0  0  0
    0.6241   -4.8337   -5.8326 C   0  0  0  0  0  0  0  0  0  0  0  0
    1.5367   -3.3368   -4.5652 H   0  0  0  0  0  0  0  0  0  0  0  0
   -0.5840   -5.3290   -6.3523 C   0  0  0  0  0  0  0  0  0  0  0  0
   -2.7303   -5.1370   -6.4465 H   0  0  0  0  0  0  0  0  0  0  0  0
    1.5501   -5.3250   -6.1099 H   0  0  0  0  0  0  0  0  0  0  0  0
   -0.4919   -6.5240   -7.2656 C   0  0  0  0  0  0  0  0  0  0  0  0
    0.5596   -7.0471   -7.5522 O   0  0  0  0  0  0  0  0  0  0  0  0
   -1.6966   -6.9219   -7.7005 O   0  0  0  0  0  0  0  0  0  0  0  0
   -1.5667   -7.6961   -8.2759 H   0  0  0  0  0  0  0  0  0  0  0  0
   -4.2781   -0.6104   -3.2537 C   0  0  0  0  0  0  0  0  0  0  0  0
   -3.4204   -1.4126   -3.6234 O   0  0  0  0  0  0  0  0  0  0  0  0
   -5.2693   -0.2176   -4.0668 O   0  0  0  0  0  0  0  0  0  0  0  0
   -5.1481   -0.6610   -4.9222 H   0  0  0  0  0  0  0  0  0  0  0  0
  1  2  2  0  0  0  0
  2  3  1  0  0  0  0
  4  9  1  0  0  0  0
  4  3  2  0  0  0  0
  5  4  1  0  0  0  0
  6  5  2  0  0  0  0
  6  1  1  0  0  0  0
  7  1  1  0  0  0  0
  8  5  1  0  0  0  0
 11 10  1  0  0  0  0
 12 11  1  0  0  0  0
 13 16  1  0  0  0  0
 13 12  2  0  0  0  0
 14 12  1  0  0  0  0
 14 18  1  0  0  0  0
 15 13  1  0  0  0  0
 17 14  2  0  0  0  0
 19 15  2  0  0  0  0
 19 17  1  0  0  0  0
 20 15  1  0  0  0  0
 21 17  1  0  0  0  0
 22 19  1  0  0  0  0
 23 22  2  0  0  0  0
 24 22  1  0  0  0  0
 25 24  1  0  0  0  0
 26  6  1  0  0  0  0
 27 26  2  0  0  0  0
 28 26  1  0  0  0  0
 29 28  1  0  0  0  0
M  RAD  4   2   2   3   2  10   3  11   2
M  END
