Coordinates from ORCA-job 1g-Schema5-R8-G+-B3LYPG-6-31G_dp-scan-d49-09-n400
 OpenBabel08281819463D

 29 29  0  0  0  0  0  0  0  0999 V2000
   -3.4930   -0.7864   -1.0731 C   0  0  0  0  0  0  0  0  0  0  0  0
   -3.3660   -0.0877    0.1085 C   0  0  0  0  0  0  0  0  0  0  0  0
   -3.9407    0.9942    0.3629 C   0  0  0  0  0  0  0  0  0  0  0  0
   -4.7909    1.7488   -0.4202 C   0  0  0  0  0  0  0  0  0  0  0  0
   -4.9774    1.1140   -1.6661 C   0  0  0  0  0  0  0  0  0  0  0  0
   -4.3431   -0.1081   -1.9914 C   0  0  0  0  0  0  0  0  0  0  0  0
   -3.0552   -1.7468   -1.3179 H   0  0  0  0  0  0  0  0  0  0  0  0
   -5.6269    1.5796   -2.4006 H   0  0  0  0  0  0  0  0  0  0  0  0
   -5.2725    2.6842   -0.1628 H   0  0  0  0  0  0  0  0  0  0  0  0
   -1.0392   -1.1395   -3.1096 N   0  0  0  0  0  0  0  0  0  0  0  0
   -0.9222   -2.0138   -3.7903 N   0  0  0  0  0  0  0  0  0  0  0  0
   -0.8028   -3.1010   -4.6295 C   0  0  0  0  0  0  0  0  0  0  0  0
   -1.9799   -3.6288   -5.1960 C   0  0  0  0  0  0  0  0  0  0  0  0
    0.4913   -3.6127   -4.8612 C   0  0  0  0  0  0  0  0  0  0  0  0
   -1.8323   -4.7261   -6.0341 C   0  0  0  0  0  0  0  0  0  0  0  0
   -2.9384   -3.1742   -4.9700 H   0  0  0  0  0  0  0  0  0  0  0  0
    0.5933   -4.7069   -5.7021 C   0  0  0  0  0  0  0  0  0  0  0  0
    1.3617   -3.1633   -4.3967 H   0  0  0  0  0  0  0  0  0  0  0  0
   -0.5593   -5.2616   -6.2848 C   0  0  0  0  0  0  0  0  0  0  0  0
   -2.7037   -5.1736   -6.4965 H   0  0  0  0  0  0  0  0  0  0  0  0
    1.5561   -5.1533   -5.9251 H   0  0  0  0  0  0  0  0  0  0  0  0
   -0.3593   -6.4531   -7.1853 C   0  0  0  0  0  0  0  0  0  0  0  0
    0.7301   -6.9288   -7.4058 O   0  0  0  0  0  0  0  0  0  0  0  0
   -1.5160   -6.9030   -7.6935 O   0  0  0  0  0  0  0  0  0  0  0  0
   -1.3167   -7.6706   -8.2578 H   0  0  0  0  0  0  0  0  0  0  0  0
   -4.5183   -0.7242   -3.3266 C   0  0  0  0  0  0  0  0  0  0  0  0
   -3.7870   -1.6037   -3.7762 O   0  0  0  0  0  0  0  0  0  0  0  0
   -5.5497   -0.2320   -4.0257 O   0  0  0  0  0  0  0  0  0  0  0  0
   -5.5740   -0.6873   -4.8838 H   0  0  0  0  0  0  0  0  0  0  0  0
  1  2  2  0  0  0  0
  2  3  1  0  0  0  0
  4  9  1  0  0  0  0
  4  3  2  0  0  0  0
  5  4  1  0  0  0  0
  6  5  2  0  0  0  0
  6  1  1  0  0  0  0
  7  1  1  0  0  0  0
  8  5  1  0  0  0  0
 11 10  1  0  0  0  0
 12 11  1  0  0  0  0
 13 16  1  0  0  0  0
 13 12  2  0  0  0  0
 14 12  1  0  0  0  0
 14 18  1  0  0  0  0
 15 13  1  0  0  0  0
 17 14  2  0  0  0  0
 19 15  2  0  0  0  0
 19 17  1  0  0  0  0
 20 15  1  0  0  0  0
 21 17  1  0  0  0  0
 22 19  1  0  0  0  0
 23 22  2  0  0  0  0
 24 22  1  0  0  0  0
 25 24  1  0  0  0  0
 26  6  1  0  0  0  0
 27 26  2  0  0  0  0
 28 26  1  0  0  0  0
 29 28  1  0  0  0  0
M  RAD  4   2   2   3   2  10   3  11   2
M  END
