Coordinates from ORCA-job 1g-Schema5-R8-G+-B3LYPG-6-31G_dp-scan-d49-09-n400
 OpenBabel08281819463D

 29 29  0  0  0  0  0  0  0  0999 V2000
   -3.5445   -1.0555   -1.2816 C   0  0  0  0  0  0  0  0  0  0  0  0
   -3.2387   -0.4548   -0.0777 C   0  0  0  0  0  0  0  0  0  0  0  0
   -3.6373    0.6789    0.2713 C   0  0  0  0  0  0  0  0  0  0  0  0
   -4.4216    1.5910   -0.4058 C   0  0  0  0  0  0  0  0  0  0  0  0
   -4.7763    1.0663   -1.6673 C   0  0  0  0  0  0  0  0  0  0  0  0
   -4.3444   -0.2084   -2.1007 C   0  0  0  0  0  0  0  0  0  0  0  0
   -3.2758   -2.0547   -1.6042 H   0  0  0  0  0  0  0  0  0  0  0  0
   -5.4004    1.6606   -2.3271 H   0  0  0  0  0  0  0  0  0  0  0  0
   -4.7521    2.5639   -0.0633 H   0  0  0  0  0  0  0  0  0  0  0  0
   -1.2335   -0.9482   -3.2165 N   0  0  0  0  0  0  0  0  0  0  0  0
   -1.1153   -1.8511   -3.8600 N   0  0  0  0  0  0  0  0  0  0  0  0
   -0.9396   -2.9744   -4.6417 C   0  0  0  0  0  0  0  0  0  0  0  0
   -2.0756   -3.5752   -5.2180 C   0  0  0  0  0  0  0  0  0  0  0  0
    0.3802   -3.4476   -4.8064 C   0  0  0  0  0  0  0  0  0  0  0  0
   -1.8592   -4.7072   -5.9930 C   0  0  0  0  0  0  0  0  0  0  0  0
   -3.0583   -3.1489   -5.0501 H   0  0  0  0  0  0  0  0  0  0  0  0
    0.5507   -4.5787   -5.5847 C   0  0  0  0  0  0  0  0  0  0  0  0
    1.2174   -2.9422   -4.3386 H   0  0  0  0  0  0  0  0  0  0  0  0
   -0.5601   -5.2065   -6.1743 C   0  0  0  0  0  0  0  0  0  0  0  0
   -2.6979   -5.2097   -6.4596 H   0  0  0  0  0  0  0  0  0  0  0  0
    1.5364   -4.9986   -5.7525 H   0  0  0  0  0  0  0  0  0  0  0  0
   -0.2862   -6.4344   -7.0031 C   0  0  0  0  0  0  0  0  0  0  0  0
    0.8268   -6.8800   -7.1608 O   0  0  0  0  0  0  0  0  0  0  0  0
   -1.4073   -6.9560   -7.5219 O   0  0  0  0  0  0  0  0  0  0  0  0
   -1.1605   -7.7452   -8.0354 H   0  0  0  0  0  0  0  0  0  0  0  0
   -4.6737   -0.7067   -3.4581 C   0  0  0  0  0  0  0  0  0  0  0  0
   -4.0567   -1.6078   -4.0178 O   0  0  0  0  0  0  0  0  0  0  0  0
   -5.7006   -0.0744   -4.0398 O   0  0  0  0  0  0  0  0  0  0  0  0
   -5.8278   -0.4606   -4.9229 H   0  0  0  0  0  0  0  0  0  0  0  0
  1  2  2  0  0  0  0
  2  3  1  0  0  0  0
  4  9  1  0  0  0  0
  4  3  2  0  0  0  0
  5  4  1  0  0  0  0
  6  5  2  0  0  0  0
  6  1  1  0  0  0  0
  7  1  1  0  0  0  0
  8  5  1  0  0  0  0
 11 10  1  0  0  0  0
 12 11  1  0  0  0  0
 13 16  1  0  0  0  0
 13 12  2  0  0  0  0
 14 12  1  0  0  0  0
 14 18  1  0  0  0  0
 15 13  1  0  0  0  0
 17 14  2  0  0  0  0
 19 15  2  0  0  0  0
 19 17  1  0  0  0  0
 20 15  1  0  0  0  0
 21 17  1  0  0  0  0
 22 19  1  0  0  0  0
 23 22  2  0  0  0  0
 24 22  1  0  0  0  0
 25 24  1  0  0  0  0
 26  6  1  0  0  0  0
 27 26  2  0  0  0  0
 28 26  1  0  0  0  0
 29 28  1  0  0  0  0
M  RAD  4   2   2   3   2  10   3  11   2
M  END
