Coordinates from ORCA-job 1g-Schema5-R8-G+-B3LYPG-6-31G_dp-scan-d49-09-n400
 OpenBabel08281819463D

 29 31  0  0  1  0  0  0  0  0999 V2000
   -4.0671   -1.6413   -1.6307 C   0  0  0  0  0  0  0  0  0  0  0  0
   -3.1741   -2.5013   -2.2916 C   0  0  0  0  0  0  0  0  0  0  0  0
   -2.9530   -2.3965   -3.6844 C   0  0  0  0  0  0  0  0  0  0  0  0
   -3.6402   -1.4320   -4.4086 C   0  0  0  0  0  0  0  0  0  0  0  0
   -4.5087   -0.5552   -3.7434 C   0  0  0  0  0  0  0  0  0  0  0  0
   -4.7293   -0.6592   -2.3598 C   0  0  0  0  0  0  0  0  0  0  0  0
   -4.2333   -1.7489   -0.5639 H   0  0  0  0  0  0  0  0  0  0  0  0
   -5.0186    0.2216   -4.3023 H   0  0  0  0  0  0  0  0  0  0  0  0
   -3.5017   -1.3244   -5.4793 H   0  0  0  0  0  0  0  0  0  0  0  0
   -2.5454   -3.4855   -1.4814 N   0  0  0  0  0  0  0  0  0  0  0  0
   -1.5557   -4.1657   -1.9307 N   0  0  0  0  0  0  0  0  0  0  0  0
   -1.1587   -4.0523   -3.2436 C   0  0  0  0  0  0  0  0  0  0  0  0
   -2.0436   -3.4557   -4.2772 C   0  0  2  0  0  0  0  0  0  0  0  0
    0.0924   -4.5729   -3.5850 C   0  0  0  0  0  0  0  0  0  0  0  0
   -1.4368   -3.2739   -5.6203 C   0  0  0  0  0  0  0  0  0  0  0  0
   -2.7582   -4.2933   -4.5013 H   0  0  0  0  0  0  0  0  0  0  0  0
    0.5683   -4.4156   -4.8778 C   0  0  0  0  0  0  0  0  0  0  0  0
    0.6828   -5.0538   -2.8123 H   0  0  0  0  0  0  0  0  0  0  0  0
   -0.1950   -3.7663   -5.8983 C   0  0  0  0  0  0  0  0  0  0  0  0
   -2.0316   -2.8218   -6.4067 H   0  0  0  0  0  0  0  0  0  0  0  0
    1.5523   -4.7829   -5.1557 H   0  0  0  0  0  0  0  0  0  0  0  0
    0.4430   -3.6501   -7.2567 C   0  0  0  0  0  0  0  0  0  0  0  0
    1.5564   -4.0583   -7.4862 O   0  0  0  0  0  0  0  0  0  0  0  0
   -0.3648   -3.0500   -8.1437 O   0  0  0  0  0  0  0  0  0  0  0  0
    0.1052   -3.0014   -8.9949 H   0  0  0  0  0  0  0  0  0  0  0  0
   -5.6677    0.2499   -1.6203 C   0  0  0  0  0  0  0  0  0  0  0  0
   -5.8692    0.1666   -0.4310 O   0  0  0  0  0  0  0  0  0  0  0  0
   -6.2454    1.1515   -2.4340 O   0  0  0  0  0  0  0  0  0  0  0  0
   -6.8343    1.7028   -1.8901 H   0  0  0  0  0  0  0  0  0  0  0  0
  1  7  1  0  0  0  0
  2  1  1  0  0  0  0
  2 10  1  0  0  0  0
  3  2  2  0  0  0  0
  4  5  2  0  0  0  0
  4  3  1  0  0  0  0
  5  6  1  0  0  0  0
  6  1  2  0  0  0  0
  6 26  1  0  0  0  0
  8  5  1  0  0  0  0
  9  4  1  0  0  0  0
 11 10  2  0  0  0  0
 12 11  1  0  0  0  0
 13 16  1  6  0  0  0
 13  3  1  0  0  0  0
 13 12  1  0  0  0  0
 14 12  2  0  0  0  0
 14 18  1  0  0  0  0
 15 13  1  0  0  0  0
 17 14  1  0  0  0  0
 19 15  2  0  0  0  0
 19 17  1  0  0  0  0
 20 15  1  0  0  0  0
 21 17  1  0  0  0  0
 22 19  1  0  0  0  0
 23 22  2  0  0  0  0
 24 22  1  0  0  0  0
 25 24  1  0  0  0  0
 26 27  2  0  0  0  0
 28 29  1  0  0  0  0
 28 26  1  0  0  0  0
M  RAD  1  17   2
M  END
