Coordinates from ORCA-job 1g-Schema5-R8-G+-B3LYPG-6-31G_dp-scan-d49-09-n400
 OpenBabel08281819463D

 29 29  0  0  0  0  0  0  0  0999 V2000
   -4.0310   -1.3675   -2.0590 C   0  0  0  0  0  0  0  0  0  0  0  0
   -2.7589   -0.8989   -2.4228 C   0  0  0  0  0  0  0  0  0  0  0  0
   -2.6908    0.2991   -2.8376 C   0  0  0  0  0  0  0  0  0  0  0  0
   -3.5534    1.3245   -3.0868 C   0  0  0  0  0  0  0  0  0  0  0  0
   -4.8456    0.8631   -2.7323 C   0  0  0  0  0  0  0  0  0  0  0  0
   -5.0765   -0.4377   -2.2404 C   0  0  0  0  0  0  0  0  0  0  0  0
   -4.2415   -2.3568   -1.6662 H   0  0  0  0  0  0  0  0  0  0  0  0
   -5.6800    1.5490   -2.8404 H   0  0  0  0  0  0  0  0  0  0  0  0
   -3.3494    2.3192   -3.4605 H   0  0  0  0  0  0  0  0  0  0  0  0
   -1.1628   -2.1041   -1.7728 N   0  0  0  0  0  0  0  0  0  0  0  0
   -0.7136   -2.8346   -2.5246 N   0  0  0  0  0  0  0  0  0  0  0  0
   -0.5081   -3.4806   -3.7339 C   0  0  0  0  0  0  0  0  0  0  0  0
   -1.2709   -3.0891   -4.8510 C   0  0  0  0  0  0  0  0  0  0  0  0
    0.4590   -4.4994   -3.7788 C   0  0  0  0  0  0  0  0  0  0  0  0
   -1.0440   -3.7505   -6.0492 C   0  0  0  0  0  0  0  0  0  0  0  0
   -2.0067   -2.2974   -4.7653 H   0  0  0  0  0  0  0  0  0  0  0  0
    0.6636   -5.1438   -4.9898 C   0  0  0  0  0  0  0  0  0  0  0  0
    1.0191   -4.7633   -2.8887 H   0  0  0  0  0  0  0  0  0  0  0  0
   -0.0815   -4.7721   -6.1187 C   0  0  0  0  0  0  0  0  0  0  0  0
   -1.6075   -3.4821   -6.9348 H   0  0  0  0  0  0  0  0  0  0  0  0
    1.3952   -5.9384   -5.0872 H   0  0  0  0  0  0  0  0  0  0  0  0
    0.1987   -5.5137   -7.3983 C   0  0  0  0  0  0  0  0  0  0  0  0
    1.0199   -6.3975   -7.4785 O   0  0  0  0  0  0  0  0  0  0  0  0
   -0.5616   -5.0763   -8.4154 O   0  0  0  0  0  0  0  0  0  0  0  0
   -0.3284   -5.5958   -9.2044 H   0  0  0  0  0  0  0  0  0  0  0  0
   -6.4541   -0.9079   -1.8758 C   0  0  0  0  0  0  0  0  0  0  0  0
   -6.6921   -2.0263   -1.4770 O   0  0  0  0  0  0  0  0  0  0  0  0
   -7.3873    0.0477   -2.0428 O   0  0  0  0  0  0  0  0  0  0  0  0
   -8.2419   -0.3346   -1.7786 H   0  0  0  0  0  0  0  0  0  0  0  0
  1  7  1  0  0  0  0
  2  1  2  0  0  0  0
  3  2  1  0  0  0  0
  4  3  2  0  0  0  0
  4  5  1  0  0  0  0
  5  6  2  0  0  0  0
  6  1  1  0  0  0  0
  6 26  1  0  0  0  0
  8  5  1  0  0  0  0
  9  4  1  0  0  0  0
 11 10  1  0  0  0  0
 12 11  1  0  0  0  0
 13 16  1  0  0  0  0
 13 12  2  0  0  0  0
 14 12  1  0  0  0  0
 14 18  1  0  0  0  0
 15 13  1  0  0  0  0
 17 14  2  0  0  0  0
 19 15  2  0  0  0  0
 19 17  1  0  0  0  0
 20 15  1  0  0  0  0
 21 17  1  0  0  0  0
 22 19  1  0  0  0  0
 23 22  2  0  0  0  0
 24 22  1  0  0  0  0
 25 24  1  0  0  0  0
 26 27  2  0  0  0  0
 28 26  1  0  0  0  0
 28 29  1  0  0  0  0
M  RAD  4   2   2   3   2  10   3  11   2
M  END
