Coordinates from ORCA-job 1g-Schema5-R8-G+-B3LYPG-6-31G_dp-scan-d49-09-n400
 OpenBabel08281819463D

 29 31  0  0  1  0  0  0  0  0999 V2000
   -4.0538   -1.6119   -1.6126 C   0  0  0  0  0  0  0  0  0  0  0  0
   -3.0994   -2.4674   -2.2540 C   0  0  0  0  0  0  0  0  0  0  0  0
   -2.9154   -2.3393   -3.6846 C   0  0  0  0  0  0  0  0  0  0  0  0
   -3.6418   -1.4027   -4.3966 C   0  0  0  0  0  0  0  0  0  0  0  0
   -4.5436   -0.5619   -3.7263 C   0  0  0  0  0  0  0  0  0  0  0  0
   -4.7591   -0.6695   -2.3384 C   0  0  0  0  0  0  0  0  0  0  0  0
   -4.2027   -1.7145   -0.5422 H   0  0  0  0  0  0  0  0  0  0  0  0
   -5.0891    0.1913   -4.2849 H   0  0  0  0  0  0  0  0  0  0  0  0
   -3.5174   -1.2889   -5.4685 H   0  0  0  0  0  0  0  0  0  0  0  0
   -2.4748   -3.2545   -1.5259 N   0  0  0  0  0  0  0  0  0  0  0  0
   -1.4707   -4.0133   -1.9233 N   0  0  0  0  0  0  0  0  0  0  0  0
   -1.1257   -3.9949   -3.2317 C   0  0  0  0  0  0  0  0  0  0  0  0
   -1.9847   -3.3564   -4.2738 C   0  0  2  0  0  0  0  0  0  0  0  0
    0.0598   -4.6552   -3.6132 C   0  0  0  0  0  0  0  0  0  0  0  0
   -1.3698   -3.1860   -5.6174 C   0  0  0  0  0  0  0  0  0  0  0  0
   -2.6865   -4.2074   -4.4987 H   0  0  0  0  0  0  0  0  0  0  0  0
    0.5167   -4.5471   -4.9089 C   0  0  0  0  0  0  0  0  0  0  0  0
    0.6159   -5.1888   -2.8499 H   0  0  0  0  0  0  0  0  0  0  0  0
   -0.1893   -3.7979   -5.9108 C   0  0  0  0  0  0  0  0  0  0  0  0
   -1.9131   -2.6484   -6.3865 H   0  0  0  0  0  0  0  0  0  0  0  0
    1.4480   -5.0169   -5.2117 H   0  0  0  0  0  0  0  0  0  0  0  0
    0.4490   -3.7134   -7.2703 C   0  0  0  0  0  0  0  0  0  0  0  0
    1.5096   -4.2332   -7.5242 O   0  0  0  0  0  0  0  0  0  0  0  0
   -0.2942   -3.0066   -8.1371 O   0  0  0  0  0  0  0  0  0  0  0  0
    0.1770   -2.9882   -8.9886 H   0  0  0  0  0  0  0  0  0  0  0  0
   -5.7350    0.2057   -1.6027 C   0  0  0  0  0  0  0  0  0  0  0  0
   -5.9317    0.1200   -0.4138 O   0  0  0  0  0  0  0  0  0  0  0  0
   -6.3482    1.0744   -2.4251 O   0  0  0  0  0  0  0  0  0  0  0  0
   -6.9617    1.6069   -1.8894 H   0  0  0  0  0  0  0  0  0  0  0  0
  1  7  1  0  0  0  0
  2  1  1  0  0  0  0
  2 10  1  0  0  0  0
  3  2  2  0  0  0  0
  4  5  2  0  0  0  0
  4  3  1  0  0  0  0
  5  6  1  0  0  0  0
  6  1  2  0  0  0  0
  6 26  1  0  0  0  0
  8  5  1  0  0  0  0
  9  4  1  0  0  0  0
 11 10  1  0  0  0  0
 12 11  2  0  0  0  0
 13 16  1  6  0  0  0
 13  3  1  0  0  0  0
 13 12  1  0  0  0  0
 14 12  1  0  0  0  0
 14 18  1  0  0  0  0
 15 13  1  0  0  0  0
 17 14  2  0  0  0  0
 19 15  2  0  0  0  0
 19 17  1  0  0  0  0
 20 15  1  0  0  0  0
 21 17  1  0  0  0  0
 22 19  1  0  0  0  0
 23 22  2  0  0  0  0
 24 22  1  0  0  0  0
 25 24  1  0  0  0  0
 26 27  2  0  0  0  0
 28 29  1  0  0  0  0
 28 26  1  0  0  0  0
M  RAD  1  10   2
M  END
