Coordinates from ORCA-job 1g-Schema5-R8-G+-B3LYPG-6-31G_dp-scan-d49-09-n400
 OpenBabel08281819463D

 29 29  0  0  0  0  0  0  0  0999 V2000
   -3.4975   -0.8424   -1.1198 C   0  0  0  0  0  0  0  0  0  0  0  0
   -3.3208   -0.1554    0.0628 C   0  0  0  0  0  0  0  0  0  0  0  0
   -3.8574    0.9415    0.3360 C   0  0  0  0  0  0  0  0  0  0  0  0
   -4.7010    1.7272   -0.4230 C   0  0  0  0  0  0  0  0  0  0  0  0
   -4.9340    1.1072   -1.6689 C   0  0  0  0  0  0  0  0  0  0  0  0
   -4.3448   -0.1312   -2.0158 C   0  0  0  0  0  0  0  0  0  0  0  0
   -3.0982   -1.8160   -1.3794 H   0  0  0  0  0  0  0  0  0  0  0  0
   -5.5851    1.5973   -2.3858 H   0  0  0  0  0  0  0  0  0  0  0  0
   -5.1491    2.6743   -0.1485 H   0  0  0  0  0  0  0  0  0  0  0  0
   -1.0907   -1.1102   -3.1148 N   0  0  0  0  0  0  0  0  0  0  0  0
   -0.9695   -1.9869   -3.7918 N   0  0  0  0  0  0  0  0  0  0  0  0
   -0.8362   -3.0780   -4.6242 C   0  0  0  0  0  0  0  0  0  0  0  0
   -2.0028   -3.6177   -5.2009 C   0  0  0  0  0  0  0  0  0  0  0  0
    0.4642   -3.5820   -4.8383 C   0  0  0  0  0  0  0  0  0  0  0  0
   -1.8375   -4.7190   -6.0303 C   0  0  0  0  0  0  0  0  0  0  0  0
   -2.9677   -3.1693   -4.9902 H   0  0  0  0  0  0  0  0  0  0  0  0
    0.5837   -4.6808   -5.6708 C   0  0  0  0  0  0  0  0  0  0  0  0
    1.3259   -3.1236   -4.3668 H   0  0  0  0  0  0  0  0  0  0  0  0
   -0.5582   -5.2474   -6.2631 C   0  0  0  0  0  0  0  0  0  0  0  0
   -2.7005   -5.1754   -6.4999 H   0  0  0  0  0  0  0  0  0  0  0  0
    1.5521   -5.1217   -5.8797 H   0  0  0  0  0  0  0  0  0  0  0  0
   -0.3397   -6.4433   -7.1533 C   0  0  0  0  0  0  0  0  0  0  0  0
    0.7552   -6.9146   -7.3558 O   0  0  0  0  0  0  0  0  0  0  0  0
   -1.4874   -6.9055   -7.6707 O   0  0  0  0  0  0  0  0  0  0  0  0
   -1.2764   -7.6766   -8.2260 H   0  0  0  0  0  0  0  0  0  0  0  0
   -4.5601   -0.7295   -3.3538 C   0  0  0  0  0  0  0  0  0  0  0  0
   -3.8498   -1.6123   -3.8287 O   0  0  0  0  0  0  0  0  0  0  0  0
   -5.5997   -0.2152   -4.0235 O   0  0  0  0  0  0  0  0  0  0  0  0
   -5.6489   -0.6592   -4.8864 H   0  0  0  0  0  0  0  0  0  0  0  0
  1  2  2  0  0  0  0
  2  3  1  0  0  0  0
  4  9  1  0  0  0  0
  4  3  2  0  0  0  0
  5  4  1  0  0  0  0
  6  5  2  0  0  0  0
  6  1  1  0  0  0  0
  7  1  1  0  0  0  0
  8  5  1  0  0  0  0
 11 10  1  0  0  0  0
 12 11  1  0  0  0  0
 13 16  1  0  0  0  0
 13 12  2  0  0  0  0
 14 12  1  0  0  0  0
 14 18  1  0  0  0  0
 15 13  1  0  0  0  0
 17 14  2  0  0  0  0
 19 15  2  0  0  0  0
 19 17  1  0  0  0  0
 20 15  1  0  0  0  0
 21 17  1  0  0  0  0
 22 19  1  0  0  0  0
 23 22  2  0  0  0  0
 24 22  1  0  0  0  0
 25 24  1  0  0  0  0
 26  6  1  0  0  0  0
 27 26  2  0  0  0  0
 28 26  1  0  0  0  0
 29 28  1  0  0  0  0
M  RAD  4   2   2   3   2  10   3  11   2
M  END
