Coordinates from ORCA-job 1g-Schema5-R8-G+-B3LYPG-6-31G_dp-scan-d49-09-n400
 OpenBabel08281819463D

 29 29  0  0  0  0  0  0  0  0999 V2000
   -3.4560   -0.5871   -0.9517 C   0  0  0  0  0  0  0  0  0  0  0  0
   -3.4870    0.1287    0.2253 C   0  0  0  0  0  0  0  0  0  0  0  0
   -4.2011    1.1346    0.4349 C   0  0  0  0  0  0  0  0  0  0  0  0
   -5.0918    1.7726   -0.4055 C   0  0  0  0  0  0  0  0  0  0  0  0
   -5.1290    1.1104   -1.6498 C   0  0  0  0  0  0  0  0  0  0  0  0
   -4.3336   -0.0285   -1.9228 C   0  0  0  0  0  0  0  0  0  0  0  0
   -2.8792   -1.4799   -1.1622 H   0  0  0  0  0  0  0  0  0  0  0  0
   -5.7870    1.4877   -2.4257 H   0  0  0  0  0  0  0  0  0  0  0  0
   -5.6957    2.6458   -0.1899 H   0  0  0  0  0  0  0  0  0  0  0  0
   -0.8880   -1.2362   -3.0908 N   0  0  0  0  0  0  0  0  0  0  0  0
   -0.7673   -2.0988   -3.7854 N   0  0  0  0  0  0  0  0  0  0  0  0
   -0.6942   -3.1719   -4.6473 C   0  0  0  0  0  0  0  0  0  0  0  0
   -1.9037   -3.6545   -5.1856 C   0  0  0  0  0  0  0  0  0  0  0  0
    0.5755   -3.7157   -4.9284 C   0  0  0  0  0  0  0  0  0  0  0  0
   -1.8162   -4.7399   -6.0466 C   0  0  0  0  0  0  0  0  0  0  0  0
   -2.8390   -3.1733   -4.9200 H   0  0  0  0  0  0  0  0  0  0  0  0
    0.6186   -4.7964   -5.7923 C   0  0  0  0  0  0  0  0  0  0  0  0
    1.4727   -3.3006   -4.4835 H   0  0  0  0  0  0  0  0  0  0  0  0
   -0.5674   -5.3067   -6.3472 C   0  0  0  0  0  0  0  0  0  0  0  0
   -2.7142   -5.1539   -6.4888 H   0  0  0  0  0  0  0  0  0  0  0  0
    1.5601   -5.2660   -6.0545 H   0  0  0  0  0  0  0  0  0  0  0  0
   -0.4313   -6.4864   -7.2748 C   0  0  0  0  0  0  0  0  0  0  0  0
    0.6365   -6.9854   -7.5438 O   0  0  0  0  0  0  0  0  0  0  0  0
   -1.6170   -6.8962   -7.7489 O   0  0  0  0  0  0  0  0  0  0  0  0
   -1.4585   -7.6578   -8.3340 H   0  0  0  0  0  0  0  0  0  0  0  0
   -4.3733   -0.6788   -3.2512 C   0  0  0  0  0  0  0  0  0  0  0  0
   -3.5586   -1.5176   -3.6347 O   0  0  0  0  0  0  0  0  0  0  0  0
   -5.3860   -0.2721   -4.0295 O   0  0  0  0  0  0  0  0  0  0  0  0
   -5.3202   -0.7420   -4.8770 H   0  0  0  0  0  0  0  0  0  0  0  0
  1  2  2  0  0  0  0
  2  3  1  0  0  0  0
  4  9  1  0  0  0  0
  4  3  2  0  0  0  0
  5  4  1  0  0  0  0
  6  5  2  0  0  0  0
  6  1  1  0  0  0  0
  7  1  1  0  0  0  0
  8  5  1  0  0  0  0
 11 10  1  0  0  0  0
 12 11  1  0  0  0  0
 13 16  1  0  0  0  0
 13 12  2  0  0  0  0
 14 12  1  0  0  0  0
 14 18  1  0  0  0  0
 15 13  1  0  0  0  0
 17 14  2  0  0  0  0
 19 15  2  0  0  0  0
 19 17  1  0  0  0  0
 20 15  1  0  0  0  0
 21 17  1  0  0  0  0
 22 19  1  0  0  0  0
 23 22  2  0  0  0  0
 24 22  1  0  0  0  0
 25 24  1  0  0  0  0
 26  6  1  0  0  0  0
 27 26  2  0  0  0  0
 28 26  1  0  0  0  0
 29 28  1  0  0  0  0
M  RAD  4   2   2   3   2  10   3  11   2
M  END
