Coordinates from ORCA-job 1g-Schema5-R8-G+-B3LYPG-6-31G_dp-scan-d49-09-n400
 OpenBabel08281819463D

 29 31  0  0  1  0  0  0  0  0999 V2000
   -4.1180   -1.7679   -1.6716 C   0  0  0  0  0  0  0  0  0  0  0  0
   -3.3723   -2.7062   -2.3424 C   0  0  0  0  0  0  0  0  0  0  0  0
   -3.0567   -2.6906   -3.6801 C   0  0  0  0  0  0  0  0  0  0  0  0
   -3.5227   -1.6065   -4.4314 C   0  0  0  0  0  0  0  0  0  0  0  0
   -4.2715   -0.6061   -3.8007 C   0  0  0  0  0  0  0  0  0  0  0  0
   -4.5740   -0.6804   -2.4358 C   0  0  0  0  0  0  0  0  0  0  0  0
   -4.3501   -1.8351   -0.6142 H   0  0  0  0  0  0  0  0  0  0  0  0
   -4.6203    0.2441   -4.3756 H   0  0  0  0  0  0  0  0  0  0  0  0
   -3.3111   -1.5344   -5.4937 H   0  0  0  0  0  0  0  0  0  0  0  0
   -2.7648   -4.1678   -1.4598 N   0  0  0  0  0  0  0  0  0  0  0  0
   -1.7985   -4.6141   -2.0475 N   0  0  0  0  0  0  0  0  0  0  0  0
   -1.2827   -4.2775   -3.2693 C   0  0  0  0  0  0  0  0  0  0  0  0
   -2.2751   -3.9060   -4.3167 C   0  0  2  0  0  0  0  0  0  0  0  0
    0.0924   -4.2422   -3.4782 C   0  0  0  0  0  0  0  0  0  0  0  0
   -1.6750   -3.6470   -5.6482 C   0  0  0  0  0  0  0  0  0  0  0  0
   -3.0358   -4.6949   -4.4397 H   0  0  0  0  0  0  0  0  0  0  0  0
    0.5592   -3.8776   -4.7335 C   0  0  0  0  0  0  0  0  0  0  0  0
    0.7710   -4.4749   -2.6645 H   0  0  0  0  0  0  0  0  0  0  0  0
   -0.3231   -3.6078   -5.8265 C   0  0  0  0  0  0  0  0  0  0  0  0
   -2.3381   -3.5353   -6.4999 H   0  0  0  0  0  0  0  0  0  0  0  0
    1.6261   -3.8070   -4.9281 H   0  0  0  0  0  0  0  0  0  0  0  0
    0.3191   -3.3227   -7.1580 C   0  0  0  0  0  0  0  0  0  0  0  0
    1.5178   -3.2735   -7.3014 O   0  0  0  0  0  0  0  0  0  0  0  0
   -0.5893   -3.1312   -8.1254 O   0  0  0  0  0  0  0  0  0  0  0  0
   -0.1132   -2.9556   -8.9562 H   0  0  0  0  0  0  0  0  0  0  0  0
   -5.3728    0.3699   -1.7217 C   0  0  0  0  0  0  0  0  0  0  0  0
   -5.6346    0.3142   -0.5416 O   0  0  0  0  0  0  0  0  0  0  0  0
   -5.7552    1.3657   -2.5410 O   0  0  0  0  0  0  0  0  0  0  0  0
   -6.2625    2.0024   -2.0084 H   0  0  0  0  0  0  0  0  0  0  0  0
  1  7  1  0  0  0  0
  2  1  1  0  0  0  0
  2 10  1  0  0  0  0
  3  2  2  0  0  0  0
  4  5  2  0  0  0  0
  4  3  1  0  0  0  0
  5  6  1  0  0  0  0
  6 26  1  0  0  0  0
  6  1  2  0  0  0  0
  8  5  1  0  0  0  0
  9  4  1  0  0  0  0
 11 10  1  0  0  0  0
 12 11  1  0  0  0  0
 13 16  1  6  0  0  0
 13  3  1  0  0  0  0
 13 12  1  0  0  0  0
 14 12  2  0  0  0  0
 14 18  1  0  0  0  0
 15 13  1  0  0  0  0
 17 14  1  0  0  0  0
 19 15  2  0  0  0  0
 19 17  1  0  0  0  0
 20 15  1  0  0  0  0
 21 17  1  0  0  0  0
 22 19  1  0  0  0  0
 23 22  2  0  0  0  0
 24 22  1  0  0  0  0
 25 24  1  0  0  0  0
 26 27  2  0  0  0  0
 28 29  1  0  0  0  0
 28 26  1  0  0  0  0
M  RAD  3  10   2  11   2  17   2
M  END
