Coordinates from ORCA-job 1g-Schema5-R8-G+-B3LYPG-6-31G_dp-scan-d49-09-n400
 OpenBabel08281819463D

 29 29  0  0  0  0  0  0  0  0999 V2000
   -3.6547   -1.2611   -1.4403 C   0  0  0  0  0  0  0  0  0  0  0  0
   -3.1763   -0.7155   -0.2653 C   0  0  0  0  0  0  0  0  0  0  0  0
   -3.3802    0.4635    0.1013 C   0  0  0  0  0  0  0  0  0  0  0  0
   -4.0688    1.4828   -0.5240 C   0  0  0  0  0  0  0  0  0  0  0  0
   -4.5857    1.0199   -1.7542 C   0  0  0  0  0  0  0  0  0  0  0  0
   -4.3768   -0.3019   -2.2079 C   0  0  0  0  0  0  0  0  0  0  0  0
   -3.5560   -2.2868   -1.7786 H   0  0  0  0  0  0  0  0  0  0  0  0
   -5.1632    1.7008   -2.3713 H   0  0  0  0  0  0  0  0  0  0  0  0
   -4.2310    2.4917   -0.1641 H   0  0  0  0  0  0  0  0  0  0  0  0
   -1.3660   -0.9103   -3.1085 N   0  0  0  0  0  0  0  0  0  0  0  0
   -1.2148   -1.7992   -3.7678 N   0  0  0  0  0  0  0  0  0  0  0  0
   -1.0024   -2.9119   -4.5557 C   0  0  0  0  0  0  0  0  0  0  0  0
   -2.1219   -3.5560   -5.1170 C   0  0  0  0  0  0  0  0  0  0  0  0
    0.3324   -3.3333   -4.7385 C   0  0  0  0  0  0  0  0  0  0  0  0
   -1.8731   -4.6802   -5.8940 C   0  0  0  0  0  0  0  0  0  0  0  0
   -3.1180   -3.1647   -4.9392 H   0  0  0  0  0  0  0  0  0  0  0  0
    0.5354   -4.4585   -5.5177 C   0  0  0  0  0  0  0  0  0  0  0  0
    1.1557   -2.7956   -4.2823 H   0  0  0  0  0  0  0  0  0  0  0  0
   -0.5584   -5.1298   -6.0913 C   0  0  0  0  0  0  0  0  0  0  0  0
   -2.6983   -5.2144   -6.3493 H   0  0  0  0  0  0  0  0  0  0  0  0
    1.5340   -4.8409   -5.6983 H   0  0  0  0  0  0  0  0  0  0  0  0
   -0.2484   -6.3484   -6.9210 C   0  0  0  0  0  0  0  0  0  0  0  0
    0.8793   -6.7477   -7.0976 O   0  0  0  0  0  0  0  0  0  0  0  0
   -1.3554   -6.9156   -7.4221 O   0  0  0  0  0  0  0  0  0  0  0  0
   -1.0846   -7.6946   -7.9389 H   0  0  0  0  0  0  0  0  0  0  0  0
   -4.8521   -0.7395   -3.5453 C   0  0  0  0  0  0  0  0  0  0  0  0
   -4.3760   -1.6911   -4.1521 O   0  0  0  0  0  0  0  0  0  0  0  0
   -5.8387    0.0136   -4.0472 O   0  0  0  0  0  0  0  0  0  0  0  0
   -6.0679   -0.3413   -4.9232 H   0  0  0  0  0  0  0  0  0  0  0  0
  1  2  2  0  0  0  0
  2  3  1  0  0  0  0
  4  9  1  0  0  0  0
  4  3  2  0  0  0  0
  5  4  1  0  0  0  0
  6  5  2  0  0  0  0
  6  1  1  0  0  0  0
  7  1  1  0  0  0  0
  8  5  1  0  0  0  0
 11 10  1  0  0  0  0
 12 11  1  0  0  0  0
 13 16  1  0  0  0  0
 13 12  2  0  0  0  0
 14 12  1  0  0  0  0
 14 18  1  0  0  0  0
 15 13  1  0  0  0  0
 17 14  2  0  0  0  0
 19 15  2  0  0  0  0
 19 17  1  0  0  0  0
 20 15  1  0  0  0  0
 21 17  1  0  0  0  0
 22 19  1  0  0  0  0
 23 22  2  0  0  0  0
 24 22  1  0  0  0  0
 25 24  1  0  0  0  0
 26  6  1  0  0  0  0
 27 26  2  0  0  0  0
 28 26  1  0  0  0  0
 29 28  1  0  0  0  0
M  RAD  4   2   2   3   2  10   3  11   2
M  END
