Coordinates from ORCA-job 1g-Schema5-R8-G+-B3LYPG-6-31G_dp-scan-d49-09-n400
 OpenBabel08281819463D

 29 29  0  0  0  0  0  0  0  0999 V2000
   -3.4502   -0.5600   -0.9388 C   0  0  0  0  0  0  0  0  0  0  0  0
   -3.5150    0.1437    0.2441 C   0  0  0  0  0  0  0  0  0  0  0  0
   -4.2564    1.1297    0.4536 C   0  0  0  0  0  0  0  0  0  0  0  0
   -5.1521    1.7528   -0.3928 C   0  0  0  0  0  0  0  0  0  0  0  0
   -5.1569    1.1011   -1.6432 C   0  0  0  0  0  0  0  0  0  0  0  0
   -4.3299   -0.0155   -1.9159 C   0  0  0  0  0  0  0  0  0  0  0  0
   -2.8461   -1.4344   -1.1506 H   0  0  0  0  0  0  0  0  0  0  0  0
   -5.8139    1.4692   -2.4242 H   0  0  0  0  0  0  0  0  0  0  0  0
   -5.7800    2.6090   -0.1776 H   0  0  0  0  0  0  0  0  0  0  0  0
   -0.8463   -1.2331   -3.1060 N   0  0  0  0  0  0  0  0  0  0  0  0
   -0.7328   -2.0985   -3.7983 N   0  0  0  0  0  0  0  0  0  0  0  0
   -0.6722   -3.1744   -4.6576 C   0  0  0  0  0  0  0  0  0  0  0  0
   -1.8888   -3.6517   -5.1844 C   0  0  0  0  0  0  0  0  0  0  0  0
    0.5919   -3.7264   -4.9476 C   0  0  0  0  0  0  0  0  0  0  0  0
   -1.8149   -4.7403   -6.0425 C   0  0  0  0  0  0  0  0  0  0  0  0
   -2.8189   -3.1639   -4.9126 H   0  0  0  0  0  0  0  0  0  0  0  0
    0.6216   -4.8100   -5.8084 C   0  0  0  0  0  0  0  0  0  0  0  0
    1.4951   -3.3153   -4.5113 H   0  0  0  0  0  0  0  0  0  0  0  0
   -0.5720   -5.3153   -6.3517 C   0  0  0  0  0  0  0  0  0  0  0  0
   -2.7190   -5.1505   -6.4759 H   0  0  0  0  0  0  0  0  0  0  0  0
    1.5581   -5.2859   -6.0771 H   0  0  0  0  0  0  0  0  0  0  0  0
   -0.4504   -6.4986   -7.2766 C   0  0  0  0  0  0  0  0  0  0  0  0
    0.6122   -7.0046   -7.5531 O   0  0  0  0  0  0  0  0  0  0  0  0
   -1.6426   -6.9047   -7.7374 O   0  0  0  0  0  0  0  0  0  0  0  0
   -1.4936   -7.6696   -8.3207 H   0  0  0  0  0  0  0  0  0  0  0  0
   -4.3407   -0.6570   -3.2489 C   0  0  0  0  0  0  0  0  0  0  0  0
   -3.5112   -1.4846   -3.6258 O   0  0  0  0  0  0  0  0  0  0  0  0
   -5.3459   -0.2570   -4.0404 O   0  0  0  0  0  0  0  0  0  0  0  0
   -5.2609   -0.7202   -4.8898 H   0  0  0  0  0  0  0  0  0  0  0  0
  1  2  2  0  0  0  0
  2  3  1  0  0  0  0
  4  9  1  0  0  0  0
  4  3  2  0  0  0  0
  5  4  1  0  0  0  0
  6  5  2  0  0  0  0
  6  1  1  0  0  0  0
  7  1  1  0  0  0  0
  8  5  1  0  0  0  0
 11 10  1  0  0  0  0
 12 11  1  0  0  0  0
 13 16  1  0  0  0  0
 13 12  2  0  0  0  0
 14 12  1  0  0  0  0
 14 18  1  0  0  0  0
 15 13  1  0  0  0  0
 17 14  2  0  0  0  0
 19 15  2  0  0  0  0
 19 17  1  0  0  0  0
 20 15  1  0  0  0  0
 21 17  1  0  0  0  0
 22 19  1  0  0  0  0
 23 22  2  0  0  0  0
 24 22  1  0  0  0  0
 25 24  1  0  0  0  0
 26  6  1  0  0  0  0
 27 26  2  0  0  0  0
 28 26  1  0  0  0  0
 29 28  1  0  0  0  0
M  RAD  4   2   2   3   2  10   3  11   2
M  END
