Coordinates from ORCA-job 1g-Schema5-R8-G+-B3LYPG-6-31G_dp-scan-d49-09-n400
 OpenBabel08281819463D

 29 29  0  0  0  0  0  0  0  0999 V2000
   -3.7411   -1.4000   -1.5424 C   0  0  0  0  0  0  0  0  0  0  0  0
   -3.1469   -0.8652   -0.4145 C   0  0  0  0  0  0  0  0  0  0  0  0
   -3.2166    0.3393   -0.0818 C   0  0  0  0  0  0  0  0  0  0  0  0
   -3.8382    1.3997   -0.7081 C   0  0  0  0  0  0  0  0  0  0  0  0
   -4.4679    0.9487   -1.8900 C   0  0  0  0  0  0  0  0  0  0  0  0
   -4.4125   -0.4009   -2.3044 C   0  0  0  0  0  0  0  0  0  0  0  0
   -3.7506   -2.4392   -1.8537 H   0  0  0  0  0  0  0  0  0  0  0  0
   -5.0154    1.6613   -2.4986 H   0  0  0  0  0  0  0  0  0  0  0  0
   -3.8826    2.4310   -0.3788 H   0  0  0  0  0  0  0  0  0  0  0  0
   -1.3421   -0.9021   -2.9291 N   0  0  0  0  0  0  0  0  0  0  0  0
   -1.1500   -1.7657   -3.6126 N   0  0  0  0  0  0  0  0  0  0  0  0
   -0.9531   -2.8587   -4.4302 C   0  0  0  0  0  0  0  0  0  0  0  0
   -2.0931   -3.4783   -4.9797 C   0  0  0  0  0  0  0  0  0  0  0  0
    0.3725   -3.2860   -4.6553 C   0  0  0  0  0  0  0  0  0  0  0  0
   -1.8735   -4.5858   -5.7887 C   0  0  0  0  0  0  0  0  0  0  0  0
   -3.0854   -3.0852   -4.7719 H   0  0  0  0  0  0  0  0  0  0  0  0
    0.5458   -4.3941   -5.4657 C   0  0  0  0  0  0  0  0  0  0  0  0
    1.2113   -2.7663   -4.2065 H   0  0  0  0  0  0  0  0  0  0  0  0
   -0.5680   -5.0418   -6.0281 C   0  0  0  0  0  0  0  0  0  0  0  0
   -2.7147   -5.1011   -6.2365 H   0  0  0  0  0  0  0  0  0  0  0  0
    1.5359   -4.7808   -5.6802 H   0  0  0  0  0  0  0  0  0  0  0  0
   -0.2894   -6.2430   -6.8939 C   0  0  0  0  0  0  0  0  0  0  0  0
    0.8298   -6.6476   -7.1079 O   0  0  0  0  0  0  0  0  0  0  0  0
   -1.4138   -6.7897   -7.3788 O   0  0  0  0  0  0  0  0  0  0  0  0
   -1.1633   -7.5587   -7.9201 H   0  0  0  0  0  0  0  0  0  0  0  0
   -5.0107   -0.8354   -3.5955 C   0  0  0  0  0  0  0  0  0  0  0  0
   -4.6667   -1.8452   -4.1944 O   0  0  0  0  0  0  0  0  0  0  0  0
   -5.9558   -0.0077   -4.0594 O   0  0  0  0  0  0  0  0  0  0  0  0
   -6.2758   -0.3674   -4.9047 H   0  0  0  0  0  0  0  0  0  0  0  0
  1  2  2  0  0  0  0
  2  3  1  0  0  0  0
  4  9  1  0  0  0  0
  4  3  2  0  0  0  0
  5  4  1  0  0  0  0
  6  5  2  0  0  0  0
  6  1  1  0  0  0  0
  7  1  1  0  0  0  0
  8  5  1  0  0  0  0
 11 10  1  0  0  0  0
 12 11  1  0  0  0  0
 13 16  1  0  0  0  0
 13 12  2  0  0  0  0
 14 12  1  0  0  0  0
 14 18  1  0  0  0  0
 15 13  1  0  0  0  0
 17 14  2  0  0  0  0
 19 15  2  0  0  0  0
 19 17  1  0  0  0  0
 20 15  1  0  0  0  0
 21 17  1  0  0  0  0
 22 19  1  0  0  0  0
 23 22  2  0  0  0  0
 24 22  1  0  0  0  0
 25 24  1  0  0  0  0
 26  6  1  0  0  0  0
 27 26  2  0  0  0  0
 28 26  1  0  0  0  0
 29 28  1  0  0  0  0
M  RAD  4   2   2   3   2  10   3  11   2
M  END
