Coordinates from ORCA-job 1g-Schema5-R8-G+-B3LYPG-6-31G_dp-scan-d49-09-n400
 OpenBabel08281819463D

 29 31  0  0  1  0  0  0  0  0999 V2000
   -4.0789   -1.7054   -1.6522 C   0  0  0  0  0  0  0  0  0  0  0  0
   -3.2708   -2.6152   -2.3212 C   0  0  0  0  0  0  0  0  0  0  0  0
   -3.0192   -2.5518   -3.6909 C   0  0  0  0  0  0  0  0  0  0  0  0
   -3.6126   -1.5311   -4.4274 C   0  0  0  0  0  0  0  0  0  0  0  0
   -4.4078   -0.5807   -3.7710 C   0  0  0  0  0  0  0  0  0  0  0  0
   -4.6467   -0.6646   -2.3930 C   0  0  0  0  0  0  0  0  0  0  0  0
   -4.2708   -1.7963   -0.5883 H   0  0  0  0  0  0  0  0  0  0  0  0
   -4.8413    0.2373   -4.3353 H   0  0  0  0  0  0  0  0  0  0  0  0
   -3.4550   -1.4450   -5.4975 H   0  0  0  0  0  0  0  0  0  0  0  0
   -2.7042   -3.8123   -1.4937 N   0  0  0  0  0  0  0  0  0  0  0  0
   -1.7182   -4.3969   -1.9934 N   0  0  0  0  0  0  0  0  0  0  0  0
   -1.2390   -4.1737   -3.2638 C   0  0  0  0  0  0  0  0  0  0  0  0
   -2.1828   -3.6997   -4.3087 C   0  0  2  0  0  0  0  0  0  0  0  0
    0.1092   -4.4010   -3.5262 C   0  0  0  0  0  0  0  0  0  0  0  0
   -1.5746   -3.4783   -5.6453 C   0  0  0  0  0  0  0  0  0  0  0  0
   -2.9325   -4.5028   -4.4832 H   0  0  0  0  0  0  0  0  0  0  0  0
    0.5982   -4.1344   -4.7988 C   0  0  0  0  0  0  0  0  0  0  0  0
    0.7565   -4.7500   -2.7286 H   0  0  0  0  0  0  0  0  0  0  0  0
   -0.2449   -3.6888   -5.8646 C   0  0  0  0  0  0  0  0  0  0  0  0
   -2.2256   -3.2102   -6.4709 H   0  0  0  0  0  0  0  0  0  0  0  0
    1.6526   -4.2684   -5.0261 H   0  0  0  0  0  0  0  0  0  0  0  0
    0.4077   -3.4835   -7.2056 C   0  0  0  0  0  0  0  0  0  0  0  0
    1.5929   -3.6407   -7.3788 O   0  0  0  0  0  0  0  0  0  0  0  0
   -0.4744   -3.1086   -8.1431 O   0  0  0  0  0  0  0  0  0  0  0  0
    0.0070   -2.9901   -8.9810 H   0  0  0  0  0  0  0  0  0  0  0  0
   -5.5048    0.3221   -1.6578 C   0  0  0  0  0  0  0  0  0  0  0  0
   -5.7221    0.2544   -0.4696 O   0  0  0  0  0  0  0  0  0  0  0  0
   -5.9948    1.2759   -2.4700 O   0  0  0  0  0  0  0  0  0  0  0  0
   -6.5351    1.8739   -1.9251 H   0  0  0  0  0  0  0  0  0  0  0  0
  1  7  1  0  0  0  0
  2  1  1  0  0  0  0
  2 10  1  0  0  0  0
  3  2  2  0  0  0  0
  4  5  2  0  0  0  0
  4  3  1  0  0  0  0
  5  6  1  0  0  0  0
  6 26  1  0  0  0  0
  6  1  2  0  0  0  0
  8  5  1  0  0  0  0
  9  4  1  0  0  0  0
 11 10  2  0  0  0  0
 12 11  1  0  0  0  0
 13 16  1  6  0  0  0
 13  3  1  0  0  0  0
 13 12  1  0  0  0  0
 14 12  2  0  0  0  0
 14 18  1  0  0  0  0
 15 13  1  0  0  0  0
 17 14  1  0  0  0  0
 19 15  2  0  0  0  0
 19 17  1  0  0  0  0
 20 15  1  0  0  0  0
 21 17  1  0  0  0  0
 22 19  1  0  0  0  0
 23 22  2  0  0  0  0
 24 22  1  0  0  0  0
 25 24  1  0  0  0  0
 26 27  2  0  0  0  0
 28 29  1  0  0  0  0
 28 26  1  0  0  0  0
M  RAD  1  17   2
M  END
