Coordinates from ORCA-job 1g-Schema5-R8-G+-B3LYPG-6-31G_dp-scan-d49-09-n400
 OpenBabel08281819463D

 29 29  0  0  0  0  0  0  0  0999 V2000
   -3.5199   -0.9312   -1.1779 C   0  0  0  0  0  0  0  0  0  0  0  0
   -3.3030   -0.2841    0.0207 C   0  0  0  0  0  0  0  0  0  0  0  0
   -3.7889    0.8276    0.3266 C   0  0  0  0  0  0  0  0  0  0  0  0
   -4.6044    1.6692   -0.4026 C   0  0  0  0  0  0  0  0  0  0  0  0
   -4.8749    1.0930   -1.6620 C   0  0  0  0  0  0  0  0  0  0  0  0
   -4.3434   -0.1601   -2.0465 C   0  0  0  0  0  0  0  0  0  0  0  0
   -3.1686   -1.9149   -1.4664 H   0  0  0  0  0  0  0  0  0  0  0  0
   -5.5107    1.6292   -2.3594 H   0  0  0  0  0  0  0  0  0  0  0  0
   -5.0090    2.6269   -0.0987 H   0  0  0  0  0  0  0  0  0  0  0  0
   -1.1323   -1.0286   -3.1791 N   0  0  0  0  0  0  0  0  0  0  0  0
   -1.0203   -1.9216   -3.8365 N   0  0  0  0  0  0  0  0  0  0  0  0
   -0.8732   -3.0315   -4.6418 C   0  0  0  0  0  0  0  0  0  0  0  0
   -2.0294   -3.5990   -5.2119 C   0  0  0  0  0  0  0  0  0  0  0  0
    0.4348   -3.5245   -4.8372 C   0  0  0  0  0  0  0  0  0  0  0  0
   -1.8459   -4.7176   -6.0144 C   0  0  0  0  0  0  0  0  0  0  0  0
   -3.0011   -3.1589   -5.0172 H   0  0  0  0  0  0  0  0  0  0  0  0
    0.5724   -4.6412   -5.6425 C   0  0  0  0  0  0  0  0  0  0  0  0
    1.2883   -3.0443   -4.3722 H   0  0  0  0  0  0  0  0  0  0  0  0
   -0.5591   -5.2357   -6.2275 C   0  0  0  0  0  0  0  0  0  0  0  0
   -2.7007   -5.1952   -6.4776 H   0  0  0  0  0  0  0  0  0  0  0  0
    1.5474   -5.0749   -5.8353 H   0  0  0  0  0  0  0  0  0  0  0  0
   -0.3209   -6.4498   -7.0873 C   0  0  0  0  0  0  0  0  0  0  0  0
    0.7811   -6.9111   -7.2737 O   0  0  0  0  0  0  0  0  0  0  0  0
   -1.4593   -6.9371   -7.6019 O   0  0  0  0  0  0  0  0  0  0  0  0
   -1.2354   -7.7178   -8.1383 H   0  0  0  0  0  0  0  0  0  0  0  0
   -4.5978   -0.7143   -3.3972 C   0  0  0  0  0  0  0  0  0  0  0  0
   -3.9265   -1.6088   -3.9045 O   0  0  0  0  0  0  0  0  0  0  0  0
   -5.6268   -0.1449   -4.0379 O   0  0  0  0  0  0  0  0  0  0  0  0
   -5.7045   -0.5648   -4.9111 H   0  0  0  0  0  0  0  0  0  0  0  0
  1  2  2  0  0  0  0
  2  3  1  0  0  0  0
  4  9  1  0  0  0  0
  4  3  2  0  0  0  0
  5  4  1  0  0  0  0
  6  5  2  0  0  0  0
  6  1  1  0  0  0  0
  7  1  1  0  0  0  0
  8  5  1  0  0  0  0
 11 10  1  0  0  0  0
 12 11  1  0  0  0  0
 13 16  1  0  0  0  0
 13 12  2  0  0  0  0
 14 12  1  0  0  0  0
 14 18  1  0  0  0  0
 15 13  1  0  0  0  0
 17 14  2  0  0  0  0
 19 15  2  0  0  0  0
 19 17  1  0  0  0  0
 20 15  1  0  0  0  0
 21 17  1  0  0  0  0
 22 19  1  0  0  0  0
 23 22  2  0  0  0  0
 24 22  1  0  0  0  0
 25 24  1  0  0  0  0
 26  6  1  0  0  0  0
 27 26  2  0  0  0  0
 28 26  1  0  0  0  0
 29 28  1  0  0  0  0
M  RAD  4   2   2   3   2  10   3  11   2
M  END
