Coordinates from ORCA-job 1g-Schema5-R8-G+-B3LYPG-6-31G_dp-scan-d49-09-n400
 OpenBabel08281819463D

 29 29  0  0  0  0  0  0  0  0999 V2000
   -3.5160   -1.2973   -1.8301 C   0  0  0  0  0  0  0  0  0  0  0  0
   -2.7161   -0.5201   -1.0001 C   0  0  0  0  0  0  0  0  0  0  0  0
   -2.9344    0.7109   -0.8736 C   0  0  0  0  0  0  0  0  0  0  0  0
   -3.8345    1.5739   -1.4491 C   0  0  0  0  0  0  0  0  0  0  0  0
   -4.6568    0.8382   -2.3340 C   0  0  0  0  0  0  0  0  0  0  0  0
   -4.4896   -0.5498   -2.5351 C   0  0  0  0  0  0  0  0  0  0  0  0
   -3.4427   -2.3717   -1.9687 H   0  0  0  0  0  0  0  0  0  0  0  0
   -5.4443    1.3586   -2.8698 H   0  0  0  0  0  0  0  0  0  0  0  0
   -3.9577    2.6349   -1.2700 H   0  0  0  0  0  0  0  0  0  0  0  0
   -0.4824   -1.4743   -1.9113 N   0  0  0  0  0  0  0  0  0  0  0  0
   -0.5344   -2.1798   -2.7797 N   0  0  0  0  0  0  0  0  0  0  0  0
   -0.5939   -3.0513   -3.8491 C   0  0  0  0  0  0  0  0  0  0  0  0
   -1.8402   -3.3106   -4.4541 C   0  0  0  0  0  0  0  0  0  0  0  0
    0.6223   -3.6351   -4.2661 C   0  0  0  0  0  0  0  0  0  0  0  0
   -1.8471   -4.2016   -5.5199 C   0  0  0  0  0  0  0  0  0  0  0  0
   -2.7651   -2.8479   -4.1156 H   0  0  0  0  0  0  0  0  0  0  0  0
    0.5716   -4.5155   -5.3320 C   0  0  0  0  0  0  0  0  0  0  0  0
    1.5532   -3.3976   -3.7635 H   0  0  0  0  0  0  0  0  0  0  0  0
   -0.6552   -4.7998   -5.9558 C   0  0  0  0  0  0  0  0  0  0  0  0
   -2.7833   -4.4343   -6.0130 H   0  0  0  0  0  0  0  0  0  0  0  0
    1.4689   -4.9991   -5.7014 H   0  0  0  0  0  0  0  0  0  0  0  0
   -0.6238   -5.7723   -7.1057 C   0  0  0  0  0  0  0  0  0  0  0  0
    0.3968   -6.2928   -7.4929 O   0  0  0  0  0  0  0  0  0  0  0  0
   -1.8408   -5.9758   -7.6307 O   0  0  0  0  0  0  0  0  0  0  0  0
   -1.7480   -6.6088   -8.3642 H   0  0  0  0  0  0  0  0  0  0  0  0
   -5.2764   -1.2930   -3.5605 C   0  0  0  0  0  0  0  0  0  0  0  0
   -4.9115   -2.3544   -4.0431 O   0  0  0  0  0  0  0  0  0  0  0  0
   -6.4103   -0.6773   -3.9200 O   0  0  0  0  0  0  0  0  0  0  0  0
   -6.8401   -1.2219   -4.6022 H   0  0  0  0  0  0  0  0  0  0  0  0
  1  2  2  0  0  0  0
  2  3  1  0  0  0  0
  4  9  1  0  0  0  0
  4  3  2  0  0  0  0
  5  4  1  0  0  0  0
  6  5  2  0  0  0  0
  6  1  1  0  0  0  0
  7  1  1  0  0  0  0
  8  5  1  0  0  0  0
 11 10  1  0  0  0  0
 12 11  1  0  0  0  0
 13 16  1  0  0  0  0
 13 12  2  0  0  0  0
 14 12  1  0  0  0  0
 14 18  1  0  0  0  0
 15 13  1  0  0  0  0
 17 14  2  0  0  0  0
 19 15  2  0  0  0  0
 19 17  1  0  0  0  0
 20 15  1  0  0  0  0
 21 17  1  0  0  0  0
 22 19  1  0  0  0  0
 23 22  2  0  0  0  0
 24 22  1  0  0  0  0
 25 24  1  0  0  0  0
 26  6  1  0  0  0  0
 27 26  2  0  0  0  0
 28 26  1  0  0  0  0
 29 28  1  0  0  0  0
M  RAD  4   2   2   3   2  10   3  11   2
M  END
