Coordinates from ORCA-job 1g-Schema5-R8-G+-B3LYPG-6-31G_dp-scan-d49-09-n400
 OpenBabel08281819463D

 29 29  0  0  0  0  0  0  0  0999 V2000
   -3.4466   -1.2459   -1.9728 C   0  0  0  0  0  0  0  0  0  0  0  0
   -2.5595   -0.4579   -1.2444 C   0  0  0  0  0  0  0  0  0  0  0  0
   -2.8195    0.7653   -1.0949 C   0  0  0  0  0  0  0  0  0  0  0  0
   -3.8054    1.6060   -1.5414 C   0  0  0  0  0  0  0  0  0  0  0  0
   -4.7094    0.8459   -2.3211 C   0  0  0  0  0  0  0  0  0  0  0  0
   -4.5231   -0.5347   -2.5479 C   0  0  0  0  0  0  0  0  0  0  0  0
   -3.3585   -2.3164   -2.1288 H   0  0  0  0  0  0  0  0  0  0  0  0
   -5.5713    1.3444   -2.7532 H   0  0  0  0  0  0  0  0  0  0  0  0
   -3.9339    2.6625   -1.3424 H   0  0  0  0  0  0  0  0  0  0  0  0
   -0.4807   -1.5617   -1.8234 N   0  0  0  0  0  0  0  0  0  0  0  0
   -0.5375   -2.2532   -2.7072 N   0  0  0  0  0  0  0  0  0  0  0  0
   -0.5931   -3.0982   -3.7992 C   0  0  0  0  0  0  0  0  0  0  0  0
   -1.8149   -3.2852   -4.4770 C   0  0  0  0  0  0  0  0  0  0  0  0
    0.6120   -3.7339   -4.1695 C   0  0  0  0  0  0  0  0  0  0  0  0
   -1.8087   -4.1499   -5.5640 C   0  0  0  0  0  0  0  0  0  0  0  0
   -2.7324   -2.7894   -4.1739 H   0  0  0  0  0  0  0  0  0  0  0  0
    0.5777   -4.5863   -5.2592 C   0  0  0  0  0  0  0  0  0  0  0  0
    1.5252   -3.5544   -3.6131 H   0  0  0  0  0  0  0  0  0  0  0  0
   -0.6253   -4.7955   -5.9536 C   0  0  0  0  0  0  0  0  0  0  0  0
   -2.7275   -4.3270   -6.1101 H   0  0  0  0  0  0  0  0  0  0  0  0
    1.4697   -5.1046   -5.5927 H   0  0  0  0  0  0  0  0  0  0  0  0
   -0.5800   -5.7411   -7.1250 C   0  0  0  0  0  0  0  0  0  0  0  0
    0.4314   -6.3083   -7.4682 O   0  0  0  0  0  0  0  0  0  0  0  0
   -1.7747   -5.8671   -7.7216 O   0  0  0  0  0  0  0  0  0  0  0  0
   -1.6733   -6.4879   -8.4642 H   0  0  0  0  0  0  0  0  0  0  0  0
   -5.3930   -1.3110   -3.4796 C   0  0  0  0  0  0  0  0  0  0  0  0
   -5.0483   -2.3670   -3.9843 O   0  0  0  0  0  0  0  0  0  0  0  0
   -6.5730   -0.7257   -3.7249 O   0  0  0  0  0  0  0  0  0  0  0  0
   -7.0583   -1.2877   -4.3537 H   0  0  0  0  0  0  0  0  0  0  0  0
  1  2  2  0  0  0  0
  2  3  1  0  0  0  0
  4  9  1  0  0  0  0
  4  3  2  0  0  0  0
  5  4  1  0  0  0  0
  6  5  2  0  0  0  0
  6  1  1  0  0  0  0
  7  1  1  0  0  0  0
  8  5  1  0  0  0  0
 11 10  1  0  0  0  0
 12 11  1  0  0  0  0
 13 16  1  0  0  0  0
 13 12  2  0  0  0  0
 14 12  1  0  0  0  0
 14 18  1  0  0  0  0
 15 13  1  0  0  0  0
 17 14  2  0  0  0  0
 19 15  2  0  0  0  0
 19 17  1  0  0  0  0
 20 15  1  0  0  0  0
 21 17  1  0  0  0  0
 22 19  1  0  0  0  0
 23 22  2  0  0  0  0
 24 22  1  0  0  0  0
 25 24  1  0  0  0  0
 26  6  1  0  0  0  0
 27 26  2  0  0  0  0
 28 26  1  0  0  0  0
 29 28  1  0  0  0  0
M  RAD  4   2   2   3   2  10   3  11   2
M  END
