Coordinates from ORCA-job 1g-Schema5-R8-G+-B3LYPG-6-31G_dp-scan-d49-09-n400
 OpenBabel08281819463D

 29 31  0  0  1  0  0  0  0  0999 V2000
   -4.0673   -1.6425   -1.6319 C   0  0  0  0  0  0  0  0  0  0  0  0
   -3.1804   -2.5033   -2.2947 C   0  0  0  0  0  0  0  0  0  0  0  0
   -2.9570   -2.4024   -3.6846 C   0  0  0  0  0  0  0  0  0  0  0  0
   -3.6408   -1.4356   -4.4101 C   0  0  0  0  0  0  0  0  0  0  0  0
   -4.5062   -0.5557   -3.7455 C   0  0  0  0  0  0  0  0  0  0  0  0
   -4.7266   -0.6582   -2.3619 C   0  0  0  0  0  0  0  0  0  0  0  0
   -4.2339   -1.7495   -0.5650 H   0  0  0  0  0  0  0  0  0  0  0  0
   -5.0135    0.2225   -4.3048 H   0  0  0  0  0  0  0  0  0  0  0  0
   -3.5013   -1.3288   -5.4808 H   0  0  0  0  0  0  0  0  0  0  0  0
   -2.5494   -3.5077   -1.4760 N   0  0  0  0  0  0  0  0  0  0  0  0
   -1.5620   -4.1804   -1.9316 N   0  0  0  0  0  0  0  0  0  0  0  0
   -1.1614   -4.0579   -3.2445 C   0  0  0  0  0  0  0  0  0  0  0  0
   -2.0487   -3.4650   -4.2771 C   0  0  2  0  0  0  0  0  0  0  0  0
    0.0944   -4.5665   -3.5829 C   0  0  0  0  0  0  0  0  0  0  0  0
   -1.4425   -3.2818   -5.6199 C   0  0  0  0  0  0  0  0  0  0  0  0
   -2.7637   -4.3023   -4.5003 H   0  0  0  0  0  0  0  0  0  0  0  0
    0.5717   -4.4046   -4.8753 C   0  0  0  0  0  0  0  0  0  0  0  0
    0.6872   -5.0433   -2.8095 H   0  0  0  0  0  0  0  0  0  0  0  0
   -0.1959   -3.7635   -5.8970 C   0  0  0  0  0  0  0  0  0  0  0  0
   -2.0409   -2.8362   -6.4072 H   0  0  0  0  0  0  0  0  0  0  0  0
    1.5595   -4.7632   -5.1515 H   0  0  0  0  0  0  0  0  0  0  0  0
    0.4420   -3.6436   -7.2552 C   0  0  0  0  0  0  0  0  0  0  0  0
    1.5593   -4.0419   -7.4831 O   0  0  0  0  0  0  0  0  0  0  0  0
   -0.3702   -3.0512   -8.1432 O   0  0  0  0  0  0  0  0  0  0  0  0
    0.0997   -2.9991   -8.9942 H   0  0  0  0  0  0  0  0  0  0  0  0
   -5.6615    0.2544   -1.6225 C   0  0  0  0  0  0  0  0  0  0  0  0
   -5.8628    0.1725   -0.4331 O   0  0  0  0  0  0  0  0  0  0  0  0
   -6.2366    1.1578   -2.4362 O   0  0  0  0  0  0  0  0  0  0  0  0
   -6.8232    1.7112   -1.8919 H   0  0  0  0  0  0  0  0  0  0  0  0
  1  7  1  0  0  0  0
  2  1  1  0  0  0  0
  2 10  1  0  0  0  0
  3  2  2  0  0  0  0
  4  5  2  0  0  0  0
  4  3  1  0  0  0  0
  5  6  1  0  0  0  0
  6  1  2  0  0  0  0
  6 26  1  0  0  0  0
  8  5  1  0  0  0  0
  9  4  1  0  0  0  0
 11 10  2  0  0  0  0
 12 11  1  0  0  0  0
 13 16  1  6  0  0  0
 13  3  1  0  0  0  0
 13 12  1  0  0  0  0
 14 12  2  0  0  0  0
 14 18  1  0  0  0  0
 15 13  1  0  0  0  0
 17 14  1  0  0  0  0
 19 15  2  0  0  0  0
 19 17  1  0  0  0  0
 20 15  1  0  0  0  0
 21 17  1  0  0  0  0
 22 19  1  0  0  0  0
 23 22  2  0  0  0  0
 24 22  1  0  0  0  0
 25 24  1  0  0  0  0
 26 27  2  0  0  0  0
 28 29  1  0  0  0  0
 28 26  1  0  0  0  0
M  RAD  1  17   2
M  END
