Coordinates from ORCA-job 1g-Schema5-R8-G+-B3LYPG-6-31G_dp-scan-d49-09-n400
 OpenBabel08281819463D

 29 31  0  0  1  0  0  0  0  0999 V2000
   -4.0708   -1.6523   -1.6349 C   0  0  0  0  0  0  0  0  0  0  0  0
   -3.1962   -2.5211   -2.2990 C   0  0  0  0  0  0  0  0  0  0  0  0
   -2.9678   -2.4248   -3.6853 C   0  0  0  0  0  0  0  0  0  0  0  0
   -3.6386   -1.4499   -4.4126 C   0  0  0  0  0  0  0  0  0  0  0  0
   -4.4927   -0.5580   -3.7488 C   0  0  0  0  0  0  0  0  0  0  0  0
   -4.7156   -0.6579   -2.3661 C   0  0  0  0  0  0  0  0  0  0  0  0
   -4.2426   -1.7579   -0.5687 H   0  0  0  0  0  0  0  0  0  0  0  0
   -4.9882    0.2273   -4.3086 H   0  0  0  0  0  0  0  0  0  0  0  0
   -3.4966   -1.3462   -5.4832 H   0  0  0  0  0  0  0  0  0  0  0  0
   -2.5775   -3.5604   -1.4788 N   0  0  0  0  0  0  0  0  0  0  0  0
   -1.5881   -4.2175   -1.9405 N   0  0  0  0  0  0  0  0  0  0  0  0
   -1.1733   -4.0760   -3.2477 C   0  0  0  0  0  0  0  0  0  0  0  0
   -2.0708   -3.5013   -4.2819 C   0  0  2  0  0  0  0  0  0  0  0  0
    0.1014   -4.5408   -3.5741 C   0  0  0  0  0  0  0  0  0  0  0  0
   -1.4645   -3.3122   -5.6243 C   0  0  0  0  0  0  0  0  0  0  0  0
   -2.7927   -4.3318   -4.4993 H   0  0  0  0  0  0  0  0  0  0  0  0
    0.5821   -4.3625   -4.8637 C   0  0  0  0  0  0  0  0  0  0  0  0
    0.7049   -4.9985   -2.7974 H   0  0  0  0  0  0  0  0  0  0  0  0
   -0.2010   -3.7524   -5.8926 C   0  0  0  0  0  0  0  0  0  0  0  0
   -2.0750   -2.8948   -6.4178 H   0  0  0  0  0  0  0  0  0  0  0  0
    1.5841   -4.6859   -5.1320 H   0  0  0  0  0  0  0  0  0  0  0  0
    0.4395   -3.6202   -7.2485 C   0  0  0  0  0  0  0  0  0  0  0  0
    1.5710   -3.9814   -7.4677 O   0  0  0  0  0  0  0  0  0  0  0  0
   -0.3881   -3.0626   -8.1446 O   0  0  0  0  0  0  0  0  0  0  0  0
    0.0838   -3.0007   -8.9940 H   0  0  0  0  0  0  0  0  0  0  0  0
   -5.6388    0.2665   -1.6270 C   0  0  0  0  0  0  0  0  0  0  0  0
   -5.8416    0.1871   -0.4375 O   0  0  0  0  0  0  0  0  0  0  0  0
   -6.1998    1.1795   -2.4398 O   0  0  0  0  0  0  0  0  0  0  0  0
   -6.7783    1.7406   -1.8948 H   0  0  0  0  0  0  0  0  0  0  0  0
  1  7  1  0  0  0  0
  2  1  1  0  0  0  0
  2 10  1  0  0  0  0
  3  2  2  0  0  0  0
  4  5  2  0  0  0  0
  4  3  1  0  0  0  0
  5  6  1  0  0  0  0
  6  1  2  0  0  0  0
  6 26  1  0  0  0  0
  8  5  1  0  0  0  0
  9  4  1  0  0  0  0
 11 10  2  0  0  0  0
 12 11  1  0  0  0  0
 13 16  1  6  0  0  0
 13  3  1  0  0  0  0
 13 12  1  0  0  0  0
 14 12  2  0  0  0  0
 14 18  1  0  0  0  0
 15 13  1  0  0  0  0
 17 14  1  0  0  0  0
 19 15  2  0  0  0  0
 19 17  1  0  0  0  0
 20 15  1  0  0  0  0
 21 17  1  0  0  0  0
 22 19  1  0  0  0  0
 23 22  2  0  0  0  0
 24 22  1  0  0  0  0
 25 24  1  0  0  0  0
 26 27  2  0  0  0  0
 28 29  1  0  0  0  0
 28 26  1  0  0  0  0
M  RAD  1  17   2
M  END
