Coordinates from ORCA-job 1g-Schema5-R8-G+-B3LYPG-6-31G_dp-scan-d49-09-n400
 OpenBabel08281819463D

 29 29  0  0  0  0  0  0  0  0999 V2000
   -3.7402   -1.3810   -1.5192 C   0  0  0  0  0  0  0  0  0  0  0  0
   -3.1511   -0.8452   -0.3894 C   0  0  0  0  0  0  0  0  0  0  0  0
   -3.2248    0.3590   -0.0568 C   0  0  0  0  0  0  0  0  0  0  0  0
   -3.8453    1.4186   -0.6857 C   0  0  0  0  0  0  0  0  0  0  0  0
   -4.4686    0.9669   -1.8707 C   0  0  0  0  0  0  0  0  0  0  0  0
   -4.4086   -0.3825   -2.2848 C   0  0  0  0  0  0  0  0  0  0  0  0
   -3.7465   -2.4202   -1.8308 H   0  0  0  0  0  0  0  0  0  0  0  0
   -5.0137    1.6788   -2.4824 H   0  0  0  0  0  0  0  0  0  0  0  0
   -3.8928    2.4497   -0.3565 H   0  0  0  0  0  0  0  0  0  0  0  0
   -1.3801   -0.9147   -2.9517 N   0  0  0  0  0  0  0  0  0  0  0  0
   -1.1935   -1.7809   -3.6334 N   0  0  0  0  0  0  0  0  0  0  0  0
   -0.9839   -2.8737   -4.4486 C   0  0  0  0  0  0  0  0  0  0  0  0
   -2.1128   -3.5069   -5.0047 C   0  0  0  0  0  0  0  0  0  0  0  0
    0.3478   -3.2877   -4.6639 C   0  0  0  0  0  0  0  0  0  0  0  0
   -1.8757   -4.6133   -5.8104 C   0  0  0  0  0  0  0  0  0  0  0  0
   -3.1098   -3.1237   -4.8043 H   0  0  0  0  0  0  0  0  0  0  0  0
    0.5389   -4.3952   -5.4710 C   0  0  0  0  0  0  0  0  0  0  0  0
    1.1778   -2.7583   -4.2101 H   0  0  0  0  0  0  0  0  0  0  0  0
   -0.5638   -5.0558   -6.0400 C   0  0  0  0  0  0  0  0  0  0  0  0
   -2.7081   -5.1385   -6.2631 H   0  0  0  0  0  0  0  0  0  0  0  0
    1.5346   -4.7716   -5.6776 H   0  0  0  0  0  0  0  0  0  0  0  0
   -0.2664   -6.2553   -6.9017 C   0  0  0  0  0  0  0  0  0  0  0  0
    0.8585   -6.6487   -7.1068 O   0  0  0  0  0  0  0  0  0  0  0  0
   -1.3814   -6.8150   -7.3936 O   0  0  0  0  0  0  0  0  0  0  0  0
   -1.1186   -7.5823   -7.9315 H   0  0  0  0  0  0  0  0  0  0  0  0
   -4.9902   -0.8163   -3.5833 C   0  0  0  0  0  0  0  0  0  0  0  0
   -4.6247   -1.8173   -4.1846 O   0  0  0  0  0  0  0  0  0  0  0  0
   -5.9415    0.0012   -4.0517 O   0  0  0  0  0  0  0  0  0  0  0  0
   -6.2473   -0.3560   -4.9032 H   0  0  0  0  0  0  0  0  0  0  0  0
  1  2  2  0  0  0  0
  2  3  1  0  0  0  0
  4  9  1  0  0  0  0
  4  3  2  0  0  0  0
  5  4  1  0  0  0  0
  6  5  2  0  0  0  0
  6  1  1  0  0  0  0
  7  1  1  0  0  0  0
  8  5  1  0  0  0  0
 11 10  1  0  0  0  0
 12 11  1  0  0  0  0
 13 16  1  0  0  0  0
 13 12  2  0  0  0  0
 14 12  1  0  0  0  0
 14 18  1  0  0  0  0
 15 13  1  0  0  0  0
 17 14  2  0  0  0  0
 19 15  2  0  0  0  0
 19 17  1  0  0  0  0
 20 15  1  0  0  0  0
 21 17  1  0  0  0  0
 22 19  1  0  0  0  0
 23 22  2  0  0  0  0
 24 22  1  0  0  0  0
 25 24  1  0  0  0  0
 26  6  1  0  0  0  0
 27 26  2  0  0  0  0
 28 26  1  0  0  0  0
 29 28  1  0  0  0  0
M  RAD  4   2   2   3   2  10   3  11   2
M  END
