Coordinates from ORCA-job 1g-Schema5-R8-G+-B3LYPG-6-31G_dp-scan-d49-09-n400
 OpenBabel08281819463D

 29 29  0  0  0  0  0  0  0  0999 V2000
   -3.7304   -1.3722   -1.5178 C   0  0  0  0  0  0  0  0  0  0  0  0
   -3.1559   -0.8374   -0.3802 C   0  0  0  0  0  0  0  0  0  0  0  0
   -3.2450    0.3639   -0.0408 C   0  0  0  0  0  0  0  0  0  0  0  0
   -3.8739    1.4203   -0.6669 C   0  0  0  0  0  0  0  0  0  0  0  0
   -4.4840    0.9692   -1.8588 C   0  0  0  0  0  0  0  0  0  0  0  0
   -4.4058   -0.3767   -2.2813 C   0  0  0  0  0  0  0  0  0  0  0  0
   -3.7241   -2.4096   -1.8351 H   0  0  0  0  0  0  0  0  0  0  0  0
   -5.0329    1.6789   -2.4696 H   0  0  0  0  0  0  0  0  0  0  0  0
   -3.9355    2.4486   -0.3313 H   0  0  0  0  0  0  0  0  0  0  0  0
   -1.3683   -0.9097   -2.9675 N   0  0  0  0  0  0  0  0  0  0  0  0
   -1.1838   -1.7784   -3.6465 N   0  0  0  0  0  0  0  0  0  0  0  0
   -0.9767   -2.8741   -4.4584 C   0  0  0  0  0  0  0  0  0  0  0  0
   -2.1078   -3.5070   -5.0100 C   0  0  0  0  0  0  0  0  0  0  0  0
    0.3540   -3.2909   -4.6749 C   0  0  0  0  0  0  0  0  0  0  0  0
   -1.8746   -4.6166   -5.8124 C   0  0  0  0  0  0  0  0  0  0  0  0
   -3.1030   -3.1203   -4.8077 H   0  0  0  0  0  0  0  0  0  0  0  0
    0.5412   -4.4014   -5.4787 C   0  0  0  0  0  0  0  0  0  0  0  0
    1.1859   -2.7615   -4.2246 H   0  0  0  0  0  0  0  0  0  0  0  0
   -0.5639   -5.0621   -6.0432 C   0  0  0  0  0  0  0  0  0  0  0  0
   -2.7088   -5.1418   -6.2616 H   0  0  0  0  0  0  0  0  0  0  0  0
    1.5358   -4.7804   -5.6863 H   0  0  0  0  0  0  0  0  0  0  0  0
   -0.2703   -6.2650   -6.9014 C   0  0  0  0  0  0  0  0  0  0  0  0
    0.8536   -6.6610   -7.1074 O   0  0  0  0  0  0  0  0  0  0  0  0
   -1.3873   -6.8247   -7.3886 O   0  0  0  0  0  0  0  0  0  0  0  0
   -1.1270   -7.5945   -7.9243 H   0  0  0  0  0  0  0  0  0  0  0  0
   -4.9781   -0.8094   -3.5839 C   0  0  0  0  0  0  0  0  0  0  0  0
   -4.6077   -1.8086   -4.1853 O   0  0  0  0  0  0  0  0  0  0  0  0
   -5.9285    0.0068   -4.0567 O   0  0  0  0  0  0  0  0  0  0  0  0
   -6.2290   -0.3505   -4.9101 H   0  0  0  0  0  0  0  0  0  0  0  0
  1  2  2  0  0  0  0
  2  3  1  0  0  0  0
  4  9  1  0  0  0  0
  4  3  2  0  0  0  0
  5  4  1  0  0  0  0
  6  5  2  0  0  0  0
  6  1  1  0  0  0  0
  7  1  1  0  0  0  0
  8  5  1  0  0  0  0
 11 10  1  0  0  0  0
 12 11  1  0  0  0  0
 13 16  1  0  0  0  0
 13 12  2  0  0  0  0
 14 12  1  0  0  0  0
 14 18  1  0  0  0  0
 15 13  1  0  0  0  0
 17 14  2  0  0  0  0
 19 15  2  0  0  0  0
 19 17  1  0  0  0  0
 20 15  1  0  0  0  0
 21 17  1  0  0  0  0
 22 19  1  0  0  0  0
 23 22  2  0  0  0  0
 24 22  1  0  0  0  0
 25 24  1  0  0  0  0
 26  6  1  0  0  0  0
 27 26  2  0  0  0  0
 28 26  1  0  0  0  0
 29 28  1  0  0  0  0
M  RAD  4   2   2   3   2  10   3  11   2
M  END
