Coordinates from ORCA-job 1g-Schema5-R8-G+-B3LYPG-6-31G_dp-scan-d49-09-n400
 OpenBabel08281819463D

 29 29  0  0  0  0  0  0  0  0999 V2000
   -3.4491   -0.5564   -0.9375 C   0  0  0  0  0  0  0  0  0  0  0  0
   -3.5189    0.1449    0.2466 C   0  0  0  0  0  0  0  0  0  0  0  0
   -4.2645    1.1276    0.4565 C   0  0  0  0  0  0  0  0  0  0  0  0
   -5.1611    1.7486   -0.3905 C   0  0  0  0  0  0  0  0  0  0  0  0
   -5.1612    1.0991   -1.6419 C   0  0  0  0  0  0  0  0  0  0  0  0
   -4.3294   -0.0137   -1.9152 C   0  0  0  0  0  0  0  0  0  0  0  0
   -2.8408   -1.4277   -1.1498 H   0  0  0  0  0  0  0  0  0  0  0  0
   -5.8182    1.4660   -2.4235 H   0  0  0  0  0  0  0  0  0  0  0  0
   -5.7928    2.6020   -0.1749 H   0  0  0  0  0  0  0  0  0  0  0  0
   -0.8400   -1.2317   -3.1089 N   0  0  0  0  0  0  0  0  0  0  0  0
   -0.7277   -2.0977   -3.8007 N   0  0  0  0  0  0  0  0  0  0  0  0
   -0.6690   -3.1743   -4.6594 C   0  0  0  0  0  0  0  0  0  0  0  0
   -1.8867   -3.6509   -5.1844 C   0  0  0  0  0  0  0  0  0  0  0  0
    0.5942   -3.7277   -4.9505 C   0  0  0  0  0  0  0  0  0  0  0  0
   -1.8149   -4.7402   -6.0418 C   0  0  0  0  0  0  0  0  0  0  0  0
   -2.8160   -3.1619   -4.9118 H   0  0  0  0  0  0  0  0  0  0  0  0
    0.6218   -4.8119   -5.8106 C   0  0  0  0  0  0  0  0  0  0  0  0
    1.4983   -3.3170   -4.5156 H   0  0  0  0  0  0  0  0  0  0  0  0
   -0.5728   -5.3165   -6.3521 C   0  0  0  0  0  0  0  0  0  0  0  0
   -2.7199   -5.1498   -6.4738 H   0  0  0  0  0  0  0  0  0  0  0  0
    1.5576   -5.2888   -6.0801 H   0  0  0  0  0  0  0  0  0  0  0  0
   -0.4534   -6.5005   -7.2763 C   0  0  0  0  0  0  0  0  0  0  0  0
    0.6083   -7.0078   -7.5535 O   0  0  0  0  0  0  0  0  0  0  0  0
   -1.6467   -6.9064   -7.7346 O   0  0  0  0  0  0  0  0  0  0  0  0
   -1.4992   -7.6721   -8.3172 H   0  0  0  0  0  0  0  0  0  0  0  0
   -4.3355   -0.6532   -3.2491 C   0  0  0  0  0  0  0  0  0  0  0  0
   -3.5037   -1.4789   -3.6252 O   0  0  0  0  0  0  0  0  0  0  0  0
   -5.3394   -0.2536   -4.0428 O   0  0  0  0  0  0  0  0  0  0  0  0
   -5.2512   -0.7154   -4.8926 H   0  0  0  0  0  0  0  0  0  0  0  0
  1  2  2  0  0  0  0
  2  3  1  0  0  0  0
  4  9  1  0  0  0  0
  4  3  2  0  0  0  0
  5  4  1  0  0  0  0
  6  5  2  0  0  0  0
  6  1  1  0  0  0  0
  7  1  1  0  0  0  0
  8  5  1  0  0  0  0
 11 10  1  0  0  0  0
 12 11  1  0  0  0  0
 13 16  1  0  0  0  0
 13 12  2  0  0  0  0
 14 12  1  0  0  0  0
 14 18  1  0  0  0  0
 15 13  1  0  0  0  0
 17 14  2  0  0  0  0
 19 15  2  0  0  0  0
 19 17  1  0  0  0  0
 20 15  1  0  0  0  0
 21 17  1  0  0  0  0
 22 19  1  0  0  0  0
 23 22  2  0  0  0  0
 24 22  1  0  0  0  0
 25 24  1  0  0  0  0
 26  6  1  0  0  0  0
 27 26  2  0  0  0  0
 28 26  1  0  0  0  0
 29 28  1  0  0  0  0
M  RAD  4   2   2   3   2  10   3  11   2
M  END
