Coordinates from ORCA-job 1g-Schema5-R8-G+-B3LYPG-6-31G_dp-scan-d49-09-n400
 OpenBabel08281819463D

 29 29  0  0  0  0  0  0  0  0999 V2000
   -3.4229   -0.5105   -0.9359 C   0  0  0  0  0  0  0  0  0  0  0  0
   -3.6188    0.0878    0.2896 C   0  0  0  0  0  0  0  0  0  0  0  0
   -4.4670    0.9756    0.5300 C   0  0  0  0  0  0  0  0  0  0  0  0
   -5.3821    1.5691   -0.3173 C   0  0  0  0  0  0  0  0  0  0  0  0
   -5.2598    1.0198   -1.6098 C   0  0  0  0  0  0  0  0  0  0  0  0
   -4.3102    0.0148   -1.9169 C   0  0  0  0  0  0  0  0  0  0  0  0
   -2.7146   -1.2934   -1.1801 H   0  0  0  0  0  0  0  0  0  0  0  0
   -5.9131    1.3809   -2.3969 H   0  0  0  0  0  0  0  0  0  0  0  0
   -6.1047    2.3395   -0.0754 H   0  0  0  0  0  0  0  0  0  0  0  0
   -0.6443   -1.1267   -3.2492 N   0  0  0  0  0  0  0  0  0  0  0  0
   -0.5816   -2.0219   -3.9091 N   0  0  0  0  0  0  0  0  0  0  0  0
   -0.5827   -3.1328   -4.7253 C   0  0  0  0  0  0  0  0  0  0  0  0
   -1.8299   -3.5907   -5.1942 C   0  0  0  0  0  0  0  0  0  0  0  0
    0.6530   -3.7384   -5.0298 C   0  0  0  0  0  0  0  0  0  0  0  0
   -1.8187   -4.7160   -6.0069 C   0  0  0  0  0  0  0  0  0  0  0  0
   -2.7343   -3.0605   -4.9154 H   0  0  0  0  0  0  0  0  0  0  0  0
    0.6205   -4.8571   -5.8444 C   0  0  0  0  0  0  0  0  0  0  0  0
    1.5823   -3.3402   -4.6386 H   0  0  0  0  0  0  0  0  0  0  0  0
   -0.6053   -5.3444   -6.3292 C   0  0  0  0  0  0  0  0  0  0  0  0
   -2.7488   -5.1132   -6.3950 H   0  0  0  0  0  0  0  0  0  0  0  0
    1.5322   -5.3748   -6.1210 H   0  0  0  0  0  0  0  0  0  0  0  0
   -0.5511   -6.5684   -7.2064 C   0  0  0  0  0  0  0  0  0  0  0  0
    0.4856   -7.1192   -7.4950 O   0  0  0  0  0  0  0  0  0  0  0  0
   -1.7700   -6.9549   -7.6109 O   0  0  0  0  0  0  0  0  0  0  0  0
   -1.6643   -7.7481   -8.1650 H   0  0  0  0  0  0  0  0  0  0  0  0
   -4.2002   -0.5273   -3.2882 C   0  0  0  0  0  0  0  0  0  0  0  0
   -3.3099   -1.2900   -3.6651 O   0  0  0  0  0  0  0  0  0  0  0  0
   -5.1689   -0.1153   -4.1190 O   0  0  0  0  0  0  0  0  0  0  0  0
   -5.0024   -0.5096   -4.9908 H   0  0  0  0  0  0  0  0  0  0  0  0
  1  2  2  0  0  0  0
  2  3  1  0  0  0  0
  4  9  1  0  0  0  0
  4  3  2  0  0  0  0
  5  4  1  0  0  0  0
  6  5  2  0  0  0  0
  6  1  1  0  0  0  0
  7  1  1  0  0  0  0
  8  5  1  0  0  0  0
 11 10  1  0  0  0  0
 12 11  1  0  0  0  0
 13 16  1  0  0  0  0
 13 12  2  0  0  0  0
 14 12  1  0  0  0  0
 14 18  1  0  0  0  0
 15 13  1  0  0  0  0
 17 14  2  0  0  0  0
 19 15  2  0  0  0  0
 19 17  1  0  0  0  0
 20 15  1  0  0  0  0
 21 17  1  0  0  0  0
 22 19  1  0  0  0  0
 23 22  2  0  0  0  0
 24 22  1  0  0  0  0
 25 24  1  0  0  0  0
 26  6  1  0  0  0  0
 27 26  2  0  0  0  0
 28 26  1  0  0  0  0
 29 28  1  0  0  0  0
M  RAD  4   2   2   3   2  10   3  11   2
M  END
