Coordinates from ORCA-job 1g-Schema5-R8-G+-B3LYPG-6-31G_dp-scan-d49-09-n400
 OpenBabel08281819463D

 29 29  0  0  0  0  0  0  0  0999 V2000
   -3.7474   -1.4193   -1.5605 C   0  0  0  0  0  0  0  0  0  0  0  0
   -3.1339   -0.8810   -0.4442 C   0  0  0  0  0  0  0  0  0  0  0  0
   -3.1895    0.3267   -0.1203 C   0  0  0  0  0  0  0  0  0  0  0  0
   -3.8082    1.3878   -0.7479 C   0  0  0  0  0  0  0  0  0  0  0  0
   -4.4561    0.9330   -1.9186 C   0  0  0  0  0  0  0  0  0  0  0  0
   -4.4180   -0.4203   -2.3227 C   0  0  0  0  0  0  0  0  0  0  0  0
   -3.7691   -2.4608   -1.8638 H   0  0  0  0  0  0  0  0  0  0  0  0
   -5.0047    1.6456   -2.5262 H   0  0  0  0  0  0  0  0  0  0  0  0
   -3.8392    2.4221   -0.4265 H   0  0  0  0  0  0  0  0  0  0  0  0
   -1.3194   -0.9013   -2.8899 N   0  0  0  0  0  0  0  0  0  0  0  0
   -1.1234   -1.7607   -3.5775 N   0  0  0  0  0  0  0  0  0  0  0  0
   -0.9355   -2.8500   -4.4022 C   0  0  0  0  0  0  0  0  0  0  0  0
   -2.0821   -3.4561   -4.9533 C   0  0  0  0  0  0  0  0  0  0  0  0
    0.3859   -3.2865   -4.6333 C   0  0  0  0  0  0  0  0  0  0  0  0
   -1.8733   -4.5596   -5.7707 C   0  0  0  0  0  0  0  0  0  0  0  0
   -3.0721   -3.0580   -4.7416 H   0  0  0  0  0  0  0  0  0  0  0  0
    0.5483   -4.3901   -5.4520 C   0  0  0  0  0  0  0  0  0  0  0  0
    1.2299   -2.7769   -4.1827 H   0  0  0  0  0  0  0  0  0  0  0  0
   -0.5721   -5.0246   -6.0165 C   0  0  0  0  0  0  0  0  0  0  0  0
   -2.7198   -5.0645   -6.2201 H   0  0  0  0  0  0  0  0  0  0  0  0
    1.5347   -4.7835   -5.6716 H   0  0  0  0  0  0  0  0  0  0  0  0
   -0.3055   -6.2214   -6.8920 C   0  0  0  0  0  0  0  0  0  0  0  0
    0.8098   -6.6338   -7.1116 O   0  0  0  0  0  0  0  0  0  0  0  0
   -1.4355   -6.7543   -7.3792 O   0  0  0  0  0  0  0  0  0  0  0  0
   -1.1927   -7.5211   -7.9274 H   0  0  0  0  0  0  0  0  0  0  0  0
   -5.0369   -0.8602   -3.6027 C   0  0  0  0  0  0  0  0  0  0  0  0
   -4.7095   -1.8776   -4.1978 O   0  0  0  0  0  0  0  0  0  0  0  0
   -5.9812   -0.0281   -4.0602 O   0  0  0  0  0  0  0  0  0  0  0  0
   -6.3154   -0.3915   -4.8984 H   0  0  0  0  0  0  0  0  0  0  0  0
  1  2  2  0  0  0  0
  2  3  1  0  0  0  0
  4  9  1  0  0  0  0
  4  3  2  0  0  0  0
  5  4  1  0  0  0  0
  6  5  2  0  0  0  0
  6  1  1  0  0  0  0
  7  1  1  0  0  0  0
  8  5  1  0  0  0  0
 11 10  1  0  0  0  0
 12 11  1  0  0  0  0
 13 16  1  0  0  0  0
 13 12  2  0  0  0  0
 14 12  1  0  0  0  0
 14 18  1  0  0  0  0
 15 13  1  0  0  0  0
 17 14  2  0  0  0  0
 19 15  2  0  0  0  0
 19 17  1  0  0  0  0
 20 15  1  0  0  0  0
 21 17  1  0  0  0  0
 22 19  1  0  0  0  0
 23 22  2  0  0  0  0
 24 22  1  0  0  0  0
 25 24  1  0  0  0  0
 26  6  1  0  0  0  0
 27 26  2  0  0  0  0
 28 26  1  0  0  0  0
 29 28  1  0  0  0  0
M  RAD  4   2   2   3   2  10   3  11   2
M  END
