Coordinates from ORCA-job 1g-Schema5-R8-G+-B3LYPG-6-31G_dp-scan-d49-09-n400
 OpenBabel08281819463D

 29 31  0  0  1  0  0  0  0  0999 V2000
   -4.0641   -1.5796   -1.5419 C   0  0  0  0  0  0  0  0  0  0  0  0
   -2.9946   -2.5084   -2.1277 C   0  0  0  0  0  0  0  0  0  0  0  0
   -2.9050   -2.3333   -3.7170 C   0  0  0  0  0  0  0  0  0  0  0  0
   -3.6519   -1.4066   -4.4006 C   0  0  0  0  0  0  0  0  0  0  0  0
   -4.5533   -0.5918   -3.6934 C   0  0  0  0  0  0  0  0  0  0  0  0
   -4.7742   -0.6831   -2.2908 C   0  0  0  0  0  0  0  0  0  0  0  0
   -4.2248   -1.6426   -0.4668 H   0  0  0  0  0  0  0  0  0  0  0  0
   -5.1231    0.1527   -4.2423 H   0  0  0  0  0  0  0  0  0  0  0  0
   -3.5682   -1.2723   -5.4765 H   0  0  0  0  0  0  0  0  0  0  0  0
   -2.4409   -3.0726   -1.6571 N   0  0  0  0  0  0  0  0  0  0  0  0
   -1.3739   -3.9220   -1.9335 N   0  0  0  0  0  0  0  0  0  0  0  0
   -1.0979   -3.9724   -3.2161 C   0  0  0  0  0  0  0  0  0  0  0  0
   -1.9748   -3.3364   -4.2865 C   0  0  2  0  0  0  0  0  0  0  0  0
    0.0531   -4.7158   -3.6429 C   0  0  0  0  0  0  0  0  0  0  0  0
   -1.3380   -3.1630   -5.6300 C   0  0  0  0  0  0  0  0  0  0  0  0
   -2.6906   -4.1800   -4.4827 H   0  0  0  0  0  0  0  0  0  0  0  0
    0.4851   -4.6323   -4.9308 C   0  0  0  0  0  0  0  0  0  0  0  0
    0.5917   -5.2799   -2.8894 H   0  0  0  0  0  0  0  0  0  0  0  0
   -0.1906   -3.8174   -5.9235 C   0  0  0  0  0  0  0  0  0  0  0  0
   -1.8469   -2.5743   -6.3848 H   0  0  0  0  0  0  0  0  0  0  0  0
    1.3804   -5.1536   -5.2541 H   0  0  0  0  0  0  0  0  0  0  0  0
    0.4561   -3.7309   -7.2756 C   0  0  0  0  0  0  0  0  0  0  0  0
    1.4794   -4.3130   -7.5511 O   0  0  0  0  0  0  0  0  0  0  0  0
   -0.2285   -2.9436   -8.1250 O   0  0  0  0  0  0  0  0  0  0  0  0
    0.2532   -2.9376   -8.9703 H   0  0  0  0  0  0  0  0  0  0  0  0
   -5.7804    0.1983   -1.5934 C   0  0  0  0  0  0  0  0  0  0  0  0
   -5.9936    0.1414   -0.4070 O   0  0  0  0  0  0  0  0  0  0  0  0
   -6.3912    1.0320   -2.4525 O   0  0  0  0  0  0  0  0  0  0  0  0
   -7.0243    1.5725   -1.9480 H   0  0  0  0  0  0  0  0  0  0  0  0
  1  7  1  0  0  0  0
  2 10  1  0  0  0  0
  2  1  2  0  0  0  0
  3  2  1  0  0  0  0
  4  3  2  0  0  0  0
  4  5  1  0  0  0  0
  5  6  2  0  0  0  0
  6 26  1  0  0  0  0
  6  1  1  0  0  0  0
  8  5  1  0  0  0  0
  9  4  1  0  0  0  0
 11 10  1  0  0  0  0
 12 11  2  0  0  0  0
 13 16  1  6  0  0  0
 13  3  1  0  0  0  0
 13 12  1  0  0  0  0
 14 12  1  0  0  0  0
 14 18  1  0  0  0  0
 15 13  1  0  0  0  0
 17 14  2  0  0  0  0
 19 15  2  0  0  0  0
 19 17  1  0  0  0  0
 20 15  1  0  0  0  0
 21 17  1  0  0  0  0
 22 19  1  0  0  0  0
 23 22  2  0  0  0  0
 24 22  1  0  0  0  0
 25 24  1  0  0  0  0
 26 27  2  0  0  0  0
 28 29  1  0  0  0  0
 28 26  1  0  0  0  0
M  RAD  1  10   2
M  END
