Coordinates from ORCA-job 1g-Schema5-R8-G+-B3LYPG-6-31G_dp-scan-d49-09-n400
 OpenBabel08281819463D

 29 31  0  0  1  0  0  0  0  0999 V2000
   -4.0538   -1.6010   -1.5964 C   0  0  0  0  0  0  0  0  0  0  0  0
   -3.0607   -2.4723   -2.2211 C   0  0  0  0  0  0  0  0  0  0  0  0
   -2.9039   -2.3308   -3.6882 C   0  0  0  0  0  0  0  0  0  0  0  0
   -3.6402   -1.4008   -4.3908 C   0  0  0  0  0  0  0  0  0  0  0  0
   -4.5489   -0.5698   -3.7149 C   0  0  0  0  0  0  0  0  0  0  0  0
   -4.7675   -0.6749   -2.3237 C   0  0  0  0  0  0  0  0  0  0  0  0
   -4.1996   -1.6968   -0.5242 H   0  0  0  0  0  0  0  0  0  0  0  0
   -5.1035    0.1775   -4.2734 H   0  0  0  0  0  0  0  0  0  0  0  0
   -3.5246   -1.2836   -5.4637 H   0  0  0  0  0  0  0  0  0  0  0  0
   -2.4638   -3.1615   -1.5697 N   0  0  0  0  0  0  0  0  0  0  0  0
   -1.4362   -3.9572   -1.9306 N   0  0  0  0  0  0  0  0  0  0  0  0
   -1.1142   -3.9780   -3.2259 C   0  0  0  0  0  0  0  0  0  0  0  0
   -1.9736   -3.3369   -4.2776 C   0  0  2  0  0  0  0  0  0  0  0  0
    0.0523   -4.6820   -3.6244 C   0  0  0  0  0  0  0  0  0  0  0  0
   -1.3521   -3.1662   -5.6214 C   0  0  0  0  0  0  0  0  0  0  0  0
   -2.6789   -4.1866   -4.4926 H   0  0  0  0  0  0  0  0  0  0  0  0
    0.4986   -4.5882   -4.9178 C   0  0  0  0  0  0  0  0  0  0  0  0
    0.5983   -5.2303   -2.8644 H   0  0  0  0  0  0  0  0  0  0  0  0
   -0.1906   -3.8070   -5.9153 C   0  0  0  0  0  0  0  0  0  0  0  0
   -1.8768   -2.6033   -6.3850 H   0  0  0  0  0  0  0  0  0  0  0  0
    1.4117   -5.0858   -5.2298 H   0  0  0  0  0  0  0  0  0  0  0  0
    0.4505   -3.7271   -7.2726 C   0  0  0  0  0  0  0  0  0  0  0  0
    1.4913   -4.2817   -7.5361 O   0  0  0  0  0  0  0  0  0  0  0  0
   -0.2666   -2.9848   -8.1332 O   0  0  0  0  0  0  0  0  0  0  0  0
    0.2074   -2.9761   -8.9831 H   0  0  0  0  0  0  0  0  0  0  0  0
   -5.7570    0.1947   -1.5964 C   0  0  0  0  0  0  0  0  0  0  0  0
   -5.9571    0.1130   -0.4084 O   0  0  0  0  0  0  0  0  0  0  0  0
   -6.3746    1.0504   -2.4285 O   0  0  0  0  0  0  0  0  0  0  0  0
   -6.9976    1.5813   -1.9020 H   0  0  0  0  0  0  0  0  0  0  0  0
  1  7  1  0  0  0  0
  2  1  1  0  0  0  0
  2 10  1  0  0  0  0
  3  2  2  0  0  0  0
  4  5  2  0  0  0  0
  4  3  1  0  0  0  0
  5  6  1  0  0  0  0
  6 26  1  0  0  0  0
  6  1  2  0  0  0  0
  8  5  1  0  0  0  0
  9  4  1  0  0  0  0
 11 10  1  0  0  0  0
 12 11  2  0  0  0  0
 13 16  1  6  0  0  0
 13  3  1  0  0  0  0
 13 12  1  0  0  0  0
 14 12  1  0  0  0  0
 14 18  1  0  0  0  0
 15 13  1  0  0  0  0
 17 14  2  0  0  0  0
 19 15  2  0  0  0  0
 19 17  1  0  0  0  0
 20 15  1  0  0  0  0
 21 17  1  0  0  0  0
 22 19  1  0  0  0  0
 23 22  2  0  0  0  0
 24 22  1  0  0  0  0
 25 24  1  0  0  0  0
 26 27  2  0  0  0  0
 28 29  1  0  0  0  0
 28 26  1  0  0  0  0
M  RAD  1  10   2
M  END
