Coordinates from ORCA-job 1g-Schema5-R8-G+-B3LYPG-6-31G_dp-scan-d49-09-n400
 OpenBabel08281819463D

 29 29  0  0  0  0  0  0  0  0999 V2000
   -3.7556   -1.4641   -1.6101 C   0  0  0  0  0  0  0  0  0  0  0  0
   -3.0762   -0.9244   -0.5323 C   0  0  0  0  0  0  0  0  0  0  0  0
   -3.0974    0.2880   -0.2212 C   0  0  0  0  0  0  0  0  0  0  0  0
   -3.7145    1.3551   -0.8387 C   0  0  0  0  0  0  0  0  0  0  0  0
   -4.4204    0.8990   -1.9757 C   0  0  0  0  0  0  0  0  0  0  0  0
   -4.4301   -0.4602   -2.3607 C   0  0  0  0  0  0  0  0  0  0  0  0
   -3.8102   -2.5085   -1.8991 H   0  0  0  0  0  0  0  0  0  0  0  0
   -4.9777    1.6157   -2.5705 H   0  0  0  0  0  0  0  0  0  0  0  0
   -3.7099    2.3940   -0.5310 H   0  0  0  0  0  0  0  0  0  0  0  0
   -1.3054   -0.9000   -2.8097 N   0  0  0  0  0  0  0  0  0  0  0  0
   -1.1011   -1.7502   -3.5070 N   0  0  0  0  0  0  0  0  0  0  0  0
   -0.9232   -2.8313   -4.3448 C   0  0  0  0  0  0  0  0  0  0  0  0
   -2.0749   -3.4144   -4.9104 C   0  0  0  0  0  0  0  0  0  0  0  0
    0.3932   -3.2823   -4.5757 C   0  0  0  0  0  0  0  0  0  0  0  0
   -1.8755   -4.5089   -5.7425 C   0  0  0  0  0  0  0  0  0  0  0  0
   -3.0645   -3.0113   -4.7029 H   0  0  0  0  0  0  0  0  0  0  0  0
    0.5458   -4.3766   -5.4088 C   0  0  0  0  0  0  0  0  0  0  0  0
    1.2412   -2.7901   -4.1136 H   0  0  0  0  0  0  0  0  0  0  0  0
   -0.5795   -4.9879   -5.9884 C   0  0  0  0  0  0  0  0  0  0  0  0
   -2.7264   -4.9957   -6.2036 H   0  0  0  0  0  0  0  0  0  0  0  0
    1.5283   -4.7796   -5.6285 H   0  0  0  0  0  0  0  0  0  0  0  0
   -0.3243   -6.1748   -6.8803 C   0  0  0  0  0  0  0  0  0  0  0  0
    0.7861   -6.6013   -7.0977 O   0  0  0  0  0  0  0  0  0  0  0  0
   -1.4586   -6.6841   -7.3828 O   0  0  0  0  0  0  0  0  0  0  0  0
   -1.2230   -7.4461   -7.9406 H   0  0  0  0  0  0  0  0  0  0  0  0
   -5.1010   -0.9035   -3.6143 C   0  0  0  0  0  0  0  0  0  0  0  0
   -4.8034   -1.9281   -4.2118 O   0  0  0  0  0  0  0  0  0  0  0  0
   -6.0529   -0.0649   -4.0424 O   0  0  0  0  0  0  0  0  0  0  0  0
   -6.4208   -0.4293   -4.8661 H   0  0  0  0  0  0  0  0  0  0  0  0
  1  2  2  0  0  0  0
  2  3  1  0  0  0  0
  4  9  1  0  0  0  0
  4  3  2  0  0  0  0
  5  4  1  0  0  0  0
  6  5  2  0  0  0  0
  6  1  1  0  0  0  0
  7  1  1  0  0  0  0
  8  5  1  0  0  0  0
 11 10  1  0  0  0  0
 12 11  1  0  0  0  0
 13 16  1  0  0  0  0
 13 12  2  0  0  0  0
 14 12  1  0  0  0  0
 14 18  1  0  0  0  0
 15 13  1  0  0  0  0
 17 14  2  0  0  0  0
 19 15  2  0  0  0  0
 19 17  1  0  0  0  0
 20 15  1  0  0  0  0
 21 17  1  0  0  0  0
 22 19  1  0  0  0  0
 23 22  2  0  0  0  0
 24 22  1  0  0  0  0
 25 24  1  0  0  0  0
 26  6  1  0  0  0  0
 27 26  2  0  0  0  0
 28 26  1  0  0  0  0
 29 28  1  0  0  0  0
M  RAD  4   2   2   3   2  10   3  11   2
M  END
