Coordinates from ORCA-job 1g-Schema5-R8-G+-B3LYPG-6-31G_dp-scan-d49-09-n400
 OpenBabel08281819463D

 29 29  0  0  0  0  0  0  0  0999 V2000
   -3.5339   -1.3086   -1.7989 C   0  0  0  0  0  0  0  0  0  0  0  0
   -2.7664   -0.5450   -0.9281 C   0  0  0  0  0  0  0  0  0  0  0  0
   -2.9791    0.6841   -0.7832 C   0  0  0  0  0  0  0  0  0  0  0  0
   -3.8590    1.5578   -1.3756 C   0  0  0  0  0  0  0  0  0  0  0  0
   -4.6522    0.8409   -2.3011 C   0  0  0  0  0  0  0  0  0  0  0  0
   -4.4824   -0.5438   -2.5219 C   0  0  0  0  0  0  0  0  0  0  0  0
   -3.4585   -2.3805   -1.9527 H   0  0  0  0  0  0  0  0  0  0  0  0
   -5.4199    1.3729   -2.8539 H   0  0  0  0  0  0  0  0  0  0  0  0
   -3.9864    2.6159   -1.1825 H   0  0  0  0  0  0  0  0  0  0  0  0
   -0.5033   -1.4056   -1.9913 N   0  0  0  0  0  0  0  0  0  0  0  0
   -0.5461   -2.1291   -2.8446 N   0  0  0  0  0  0  0  0  0  0  0  0
   -0.5981   -3.0247   -3.8941 C   0  0  0  0  0  0  0  0  0  0  0  0
   -1.8455   -3.3083   -4.4852 C   0  0  0  0  0  0  0  0  0  0  0  0
    0.6219   -3.6052   -4.3043 C   0  0  0  0  0  0  0  0  0  0  0  0
   -1.8501   -4.2225   -5.5312 C   0  0  0  0  0  0  0  0  0  0  0  0
   -2.7708   -2.8442   -4.1504 H   0  0  0  0  0  0  0  0  0  0  0  0
    0.5730   -4.5097   -5.3499 C   0  0  0  0  0  0  0  0  0  0  0  0
    1.5532   -3.3478   -3.8126 H   0  0  0  0  0  0  0  0  0  0  0  0
   -0.6548   -4.8191   -5.9602 C   0  0  0  0  0  0  0  0  0  0  0  0
   -2.7865   -4.4743   -6.0142 H   0  0  0  0  0  0  0  0  0  0  0  0
    1.4725   -4.9932   -5.7140 H   0  0  0  0  0  0  0  0  0  0  0  0
   -0.6205   -5.8168   -7.0884 C   0  0  0  0  0  0  0  0  0  0  0  0
    0.4029   -6.3358   -7.4700 O   0  0  0  0  0  0  0  0  0  0  0  0
   -1.8386   -6.0435   -7.6013 O   0  0  0  0  0  0  0  0  0  0  0  0
   -1.7442   -6.6920   -8.3210 H   0  0  0  0  0  0  0  0  0  0  0  0
   -5.2440   -1.2643   -3.5814 C   0  0  0  0  0  0  0  0  0  0  0  0
   -4.8739   -2.3206   -4.0722 O   0  0  0  0  0  0  0  0  0  0  0  0
   -6.3637   -0.6359   -3.9625 O   0  0  0  0  0  0  0  0  0  0  0  0
   -6.7774   -1.1671   -4.6648 H   0  0  0  0  0  0  0  0  0  0  0  0
  1  2  2  0  0  0  0
  2  3  1  0  0  0  0
  4  9  1  0  0  0  0
  4  3  2  0  0  0  0
  5  4  1  0  0  0  0
  6  5  2  0  0  0  0
  6  1  1  0  0  0  0
  7  1  1  0  0  0  0
  8  5  1  0  0  0  0
 11 10  1  0  0  0  0
 12 11  1  0  0  0  0
 13 16  1  0  0  0  0
 13 12  2  0  0  0  0
 14 12  1  0  0  0  0
 14 18  1  0  0  0  0
 15 13  1  0  0  0  0
 17 14  2  0  0  0  0
 19 15  2  0  0  0  0
 19 17  1  0  0  0  0
 20 15  1  0  0  0  0
 21 17  1  0  0  0  0
 22 19  1  0  0  0  0
 23 22  2  0  0  0  0
 24 22  1  0  0  0  0
 25 24  1  0  0  0  0
 26  6  1  0  0  0  0
 27 26  2  0  0  0  0
 28 26  1  0  0  0  0
 29 28  1  0  0  0  0
M  RAD  4   2   2   3   2  10   3  11   2
M  END
