Coordinates from ORCA-job 1g-Schema5-R8-G+-B3LYPG-6-31G_dp-scan-d49-09-n400
 OpenBabel08281819463D

 29 29  0  0  0  0  0  0  0  0999 V2000
   -3.4633   -0.6594   -0.9996 C   0  0  0  0  0  0  0  0  0  0  0  0
   -3.4155    0.0675    0.1702 C   0  0  0  0  0  0  0  0  0  0  0  0
   -4.0699    1.1107    0.3920 C   0  0  0  0  0  0  0  0  0  0  0  0
   -4.9526    1.7882   -0.4252 C   0  0  0  0  0  0  0  0  0  0  0  0
   -5.0649    1.1190   -1.6616 C   0  0  0  0  0  0  0  0  0  0  0  0
   -4.3389   -0.0614   -1.9489 C   0  0  0  0  0  0  0  0  0  0  0  0
   -2.9463   -1.5865   -1.2166 H   0  0  0  0  0  0  0  0  0  0  0  0
   -5.7276    1.5240   -2.4196 H   0  0  0  0  0  0  0  0  0  0  0  0
   -5.5037    2.6928   -0.1982 H   0  0  0  0  0  0  0  0  0  0  0  0
   -0.9721   -1.2222   -3.0702 N   0  0  0  0  0  0  0  0  0  0  0  0
   -0.8433   -2.0831   -3.7656 N   0  0  0  0  0  0  0  0  0  0  0  0
   -0.7457   -3.1544   -4.6274 C   0  0  0  0  0  0  0  0  0  0  0  0
   -1.9389   -3.6501   -5.1899 C   0  0  0  0  0  0  0  0  0  0  0  0
    0.5357   -3.6837   -4.8845 C   0  0  0  0  0  0  0  0  0  0  0  0
   -1.8214   -4.7331   -6.0506 C   0  0  0  0  0  0  0  0  0  0  0  0
   -2.8857   -3.1815   -4.9430 H   0  0  0  0  0  0  0  0  0  0  0  0
    0.6083   -4.7626   -5.7483 C   0  0  0  0  0  0  0  0  0  0  0  0
    1.4192   -3.2590   -4.4216 H   0  0  0  0  0  0  0  0  0  0  0  0
   -0.5608   -5.2854   -6.3274 C   0  0  0  0  0  0  0  0  0  0  0  0
   -2.7058   -5.1563   -6.5110 H   0  0  0  0  0  0  0  0  0  0  0  0
    1.5601   -5.2211   -5.9923 H   0  0  0  0  0  0  0  0  0  0  0  0
   -0.3929   -6.4618   -7.2539 C   0  0  0  0  0  0  0  0  0  0  0  0
    0.6853   -6.9508   -7.4992 O   0  0  0  0  0  0  0  0  0  0  0  0
   -1.5639   -6.8830   -7.7539 O   0  0  0  0  0  0  0  0  0  0  0  0
   -1.3852   -7.6422   -8.3361 H   0  0  0  0  0  0  0  0  0  0  0  0
   -4.4458   -0.7143   -3.2728 C   0  0  0  0  0  0  0  0  0  0  0  0
   -3.6633   -1.5702   -3.6827 O   0  0  0  0  0  0  0  0  0  0  0  0
   -5.4778   -0.2864   -4.0126 O   0  0  0  0  0  0  0  0  0  0  0  0
   -5.4553   -0.7595   -4.8608 H   0  0  0  0  0  0  0  0  0  0  0  0
  1  2  2  0  0  0  0
  2  3  1  0  0  0  0
  4  9  1  0  0  0  0
  4  3  2  0  0  0  0
  5  4  1  0  0  0  0
  6  5  2  0  0  0  0
  6  1  1  0  0  0  0
  7  1  1  0  0  0  0
  8  5  1  0  0  0  0
 11 10  1  0  0  0  0
 12 11  1  0  0  0  0
 13 16  1  0  0  0  0
 13 12  2  0  0  0  0
 14 12  1  0  0  0  0
 14 18  1  0  0  0  0
 15 13  1  0  0  0  0
 17 14  2  0  0  0  0
 19 15  2  0  0  0  0
 19 17  1  0  0  0  0
 20 15  1  0  0  0  0
 21 17  1  0  0  0  0
 22 19  1  0  0  0  0
 23 22  2  0  0  0  0
 24 22  1  0  0  0  0
 25 24  1  0  0  0  0
 26  6  1  0  0  0  0
 27 26  2  0  0  0  0
 28 26  1  0  0  0  0
 29 28  1  0  0  0  0
M  RAD  4   2   2   3   2  10   3  11   2
M  END
