Coordinates from ORCA-job 1g-Schema5-R8-G+-B3LYPG-6-31G_dp-scan-d49-09-n400
 OpenBabel08281819463D

 29 29  0  0  0  0  0  0  0  0999 V2000
   -3.5528   -1.0784   -1.2994 C   0  0  0  0  0  0  0  0  0  0  0  0
   -3.2227   -0.4805   -0.1004 C   0  0  0  0  0  0  0  0  0  0  0  0
   -3.5996    0.6598    0.2511 C   0  0  0  0  0  0  0  0  0  0  0  0
   -4.3768    1.5833   -0.4185 C   0  0  0  0  0  0  0  0  0  0  0  0
   -4.7538    1.0627   -1.6754 C   0  0  0  0  0  0  0  0  0  0  0  0
   -4.3472   -0.2191   -2.1115 C   0  0  0  0  0  0  0  0  0  0  0  0
   -3.3046   -2.0826   -1.6232 H   0  0  0  0  0  0  0  0  0  0  0  0
   -5.3757    1.6660   -2.3292 H   0  0  0  0  0  0  0  0  0  0  0  0
   -4.6884    2.5616   -0.0737 H   0  0  0  0  0  0  0  0  0  0  0  0
   -1.2528   -0.9432   -3.2064 N   0  0  0  0  0  0  0  0  0  0  0  0
   -1.1337   -1.8453   -3.8513 N   0  0  0  0  0  0  0  0  0  0  0  0
   -0.9531   -2.9677   -4.6332 C   0  0  0  0  0  0  0  0  0  0  0  0
   -2.0848   -3.5723   -5.2141 C   0  0  0  0  0  0  0  0  0  0  0  0
    0.3689   -3.4367   -4.7931 C   0  0  0  0  0  0  0  0  0  0  0  0
   -1.8612   -4.7034   -5.9885 C   0  0  0  0  0  0  0  0  0  0  0  0
   -3.0700   -3.1498   -5.0510 H   0  0  0  0  0  0  0  0  0  0  0  0
    0.5464   -4.5672   -5.5707 C   0  0  0  0  0  0  0  0  0  0  0  0
    1.2026   -2.9285   -4.3220 H   0  0  0  0  0  0  0  0  0  0  0  0
   -0.5600   -5.1986   -6.1647 C   0  0  0  0  0  0  0  0  0  0  0  0
   -2.6965   -5.2085   -6.4584 H   0  0  0  0  0  0  0  0  0  0  0  0
    1.5342   -4.9837   -5.7345 H   0  0  0  0  0  0  0  0  0  0  0  0
   -0.2788   -6.4256   -6.9923 C   0  0  0  0  0  0  0  0  0  0  0  0
    0.8365   -6.8665   -7.1472 O   0  0  0  0  0  0  0  0  0  0  0  0
   -1.3959   -6.9498   -7.5173 O   0  0  0  0  0  0  0  0  0  0  0  0
   -1.1442   -7.7371   -8.0311 H   0  0  0  0  0  0  0  0  0  0  0  0
   -4.6940   -0.7118   -3.4669 C   0  0  0  0  0  0  0  0  0  0  0  0
   -4.0859   -1.6130   -4.0359 O   0  0  0  0  0  0  0  0  0  0  0  0
   -5.7250   -0.0740   -4.0345 O   0  0  0  0  0  0  0  0  0  0  0  0
   -5.8631   -0.4557   -4.9180 H   0  0  0  0  0  0  0  0  0  0  0  0
  1  2  2  0  0  0  0
  2  3  1  0  0  0  0
  4  9  1  0  0  0  0
  4  3  2  0  0  0  0
  5  4  1  0  0  0  0
  6  5  2  0  0  0  0
  6  1  1  0  0  0  0
  7  1  1  0  0  0  0
  8  5  1  0  0  0  0
 11 10  1  0  0  0  0
 12 11  1  0  0  0  0
 13 16  1  0  0  0  0
 13 12  2  0  0  0  0
 14 12  1  0  0  0  0
 14 18  1  0  0  0  0
 15 13  1  0  0  0  0
 17 14  2  0  0  0  0
 19 15  2  0  0  0  0
 19 17  1  0  0  0  0
 20 15  1  0  0  0  0
 21 17  1  0  0  0  0
 22 19  1  0  0  0  0
 23 22  2  0  0  0  0
 24 22  1  0  0  0  0
 25 24  1  0  0  0  0
 26  6  1  0  0  0  0
 27 26  2  0  0  0  0
 28 26  1  0  0  0  0
 29 28  1  0  0  0  0
M  RAD  4   2   2   3   2  10   3  11   2
M  END
