Coordinates from ORCA-job 1g-Schema5-R8-G+-B3LYPG-6-31G_dp-scan-d49-09-n400
 OpenBabel08281819463D

 29 29  0  0  0  0  0  0  0  0999 V2000
   -3.7496   -1.4212   -1.5610 C   0  0  0  0  0  0  0  0  0  0  0  0
   -3.1315   -0.8829   -0.4472 C   0  0  0  0  0  0  0  0  0  0  0  0
   -3.1832    0.3254   -0.1250 C   0  0  0  0  0  0  0  0  0  0  0  0
   -3.8001    1.3874   -0.7528 C   0  0  0  0  0  0  0  0  0  0  0  0
   -4.4521    0.9326   -1.9213 C   0  0  0  0  0  0  0  0  0  0  0  0
   -4.4188   -0.4215   -2.3233 C   0  0  0  0  0  0  0  0  0  0  0  0
   -3.7747   -2.4631   -1.8628 H   0  0  0  0  0  0  0  0  0  0  0  0
   -5.0001    1.6459   -2.5287 H   0  0  0  0  0  0  0  0  0  0  0  0
   -3.8276    2.4222   -0.4328 H   0  0  0  0  0  0  0  0  0  0  0  0
   -1.3243   -0.9031   -2.8858 N   0  0  0  0  0  0  0  0  0  0  0  0
   -1.1275   -1.7619   -3.5742 N   0  0  0  0  0  0  0  0  0  0  0  0
   -0.9383   -2.8502   -4.3998 C   0  0  0  0  0  0  0  0  0  0  0  0
   -2.0840   -3.4568   -4.9523 C   0  0  0  0  0  0  0  0  0  0  0  0
    0.3836   -3.2855   -4.6304 C   0  0  0  0  0  0  0  0  0  0  0  0
   -1.8737   -4.5594   -5.7705 C   0  0  0  0  0  0  0  0  0  0  0  0
   -3.0745   -3.0598   -4.7409 H   0  0  0  0  0  0  0  0  0  0  0  0
    0.5475   -4.3883   -5.4499 C   0  0  0  0  0  0  0  0  0  0  0  0
    1.2269   -2.7756   -4.1788 H   0  0  0  0  0  0  0  0  0  0  0  0
   -0.5720   -5.0232   -6.0158 C   0  0  0  0  0  0  0  0  0  0  0  0
   -2.7195   -5.0647   -6.2210 H   0  0  0  0  0  0  0  0  0  0  0  0
    1.5343   -4.7807   -5.6691 H   0  0  0  0  0  0  0  0  0  0  0  0
   -0.3038   -6.2190   -6.8921 C   0  0  0  0  0  0  0  0  0  0  0  0
    0.8119   -6.6305   -7.1112 O   0  0  0  0  0  0  0  0  0  0  0  0
   -1.4330   -6.7523   -7.3808 O   0  0  0  0  0  0  0  0  0  0  0  0
   -1.1892   -7.5183   -7.9295 H   0  0  0  0  0  0  0  0  0  0  0  0
   -5.0402   -0.8614   -3.6022 C   0  0  0  0  0  0  0  0  0  0  0  0
   -4.7139   -1.8791   -4.1972 O   0  0  0  0  0  0  0  0  0  0  0  0
   -5.9844   -0.0287   -4.0587 O   0  0  0  0  0  0  0  0  0  0  0  0
   -6.3200   -0.3920   -4.8964 H   0  0  0  0  0  0  0  0  0  0  0  0
  1  2  2  0  0  0  0
  2  3  1  0  0  0  0
  4  9  1  0  0  0  0
  4  3  2  0  0  0  0
  5  4  1  0  0  0  0
  6  5  2  0  0  0  0
  6  1  1  0  0  0  0
  7  1  1  0  0  0  0
  8  5  1  0  0  0  0
 11 10  1  0  0  0  0
 12 11  1  0  0  0  0
 13 16  1  0  0  0  0
 13 12  2  0  0  0  0
 14 12  1  0  0  0  0
 14 18  1  0  0  0  0
 15 13  1  0  0  0  0
 17 14  2  0  0  0  0
 19 15  2  0  0  0  0
 19 17  1  0  0  0  0
 20 15  1  0  0  0  0
 21 17  1  0  0  0  0
 22 19  1  0  0  0  0
 23 22  2  0  0  0  0
 24 22  1  0  0  0  0
 25 24  1  0  0  0  0
 26  6  1  0  0  0  0
 27 26  2  0  0  0  0
 28 26  1  0  0  0  0
 29 28  1  0  0  0  0
M  RAD  4   2   2   3   2  10   3  11   2
M  END
