Coordinates from ORCA-job 1g-Schema5-R8-G+-B3LYPG-6-31G_dp-scan-d49-09-n400
 OpenBabel08281819463D

 29 31  0  0  1  0  0  0  0  0999 V2000
   -4.0840   -1.7292   -1.6608 C   0  0  0  0  0  0  0  0  0  0  0  0
   -3.3037   -2.6540   -2.3305 C   0  0  0  0  0  0  0  0  0  0  0  0
   -3.0370   -2.6084   -3.6912 C   0  0  0  0  0  0  0  0  0  0  0  0
   -3.5882   -1.5657   -4.4334 C   0  0  0  0  0  0  0  0  0  0  0  0
   -4.3615   -0.5933   -3.7840 C   0  0  0  0  0  0  0  0  0  0  0  0
   -4.6148   -0.6708   -2.4091 C   0  0  0  0  0  0  0  0  0  0  0  0
   -4.2863   -1.8107   -0.5980 H   0  0  0  0  0  0  0  0  0  0  0  0
   -4.7659    0.2368   -4.3520 H   0  0  0  0  0  0  0  0  0  0  0  0
   -3.4176   -1.4868   -5.5021 H   0  0  0  0  0  0  0  0  0  0  0  0
   -2.7410   -3.9332   -1.4879 N   0  0  0  0  0  0  0  0  0  0  0  0
   -1.7617   -4.4797   -2.0145 N   0  0  0  0  0  0  0  0  0  0  0  0
   -1.2631   -4.2162   -3.2672 C   0  0  0  0  0  0  0  0  0  0  0  0
   -2.2254   -3.7857   -4.3162 C   0  0  2  0  0  0  0  0  0  0  0  0
    0.1022   -4.3385   -3.5052 C   0  0  0  0  0  0  0  0  0  0  0  0
   -1.6178   -3.5487   -5.6497 C   0  0  0  0  0  0  0  0  0  0  0  0
   -2.9817   -4.5812   -4.4701 H   0  0  0  0  0  0  0  0  0  0  0  0
    0.5873   -4.0326   -4.7705 C   0  0  0  0  0  0  0  0  0  0  0  0
    0.7635   -4.6397   -2.6997 H   0  0  0  0  0  0  0  0  0  0  0  0
   -0.2728   -3.6574   -5.8496 C   0  0  0  0  0  0  0  0  0  0  0  0
   -2.2761   -3.3436   -6.4875 H   0  0  0  0  0  0  0  0  0  0  0  0
    1.6523   -4.0837   -4.9821 H   0  0  0  0  0  0  0  0  0  0  0  0
    0.3803   -3.4182   -7.1848 C   0  0  0  0  0  0  0  0  0  0  0  0
    1.5756   -3.4933   -7.3428 O   0  0  0  0  0  0  0  0  0  0  0  0
   -0.5145   -3.1162   -8.1364 O   0  0  0  0  0  0  0  0  0  0  0  0
   -0.0327   -2.9743   -8.9704 H   0  0  0  0  0  0  0  0  0  0  0  0
   -5.4465    0.3418   -1.6791 C   0  0  0  0  0  0  0  0  0  0  0  0
   -5.6735    0.2806   -0.4922 O   0  0  0  0  0  0  0  0  0  0  0  0
   -5.9013    1.3111   -2.4934 O   0  0  0  0  0  0  0  0  0  0  0  0
   -6.4261    1.9249   -1.9510 H   0  0  0  0  0  0  0  0  0  0  0  0
  1  7  1  0  0  0  0
  2  1  1  0  0  0  0
  2 10  1  0  0  0  0
  3  2  2  0  0  0  0
  4  5  2  0  0  0  0
  4  3  1  0  0  0  0
  5  6  1  0  0  0  0
  6 26  1  0  0  0  0
  6  1  2  0  0  0  0
  8  5  1  0  0  0  0
  9  4  1  0  0  0  0
 11 10  1  0  0  0  0
 12 11  1  0  0  0  0
 13 16  1  6  0  0  0
 13  3  1  0  0  0  0
 13 12  1  0  0  0  0
 14 12  2  0  0  0  0
 14 18  1  0  0  0  0
 15 13  1  0  0  0  0
 17 14  1  0  0  0  0
 19 15  2  0  0  0  0
 19 17  1  0  0  0  0
 20 15  1  0  0  0  0
 21 17  1  0  0  0  0
 22 19  1  0  0  0  0
 23 22  2  0  0  0  0
 24 22  1  0  0  0  0
 25 24  1  0  0  0  0
 26 27  2  0  0  0  0
 28 29  1  0  0  0  0
 28 26  1  0  0  0  0
M  RAD  3  10   2  11   2  17   2
M  END
