Coordinates from ORCA-job 1g-Schema5-R8-G+-B3LYPG-6-31G_dp-scan-d49-09-n400
 OpenBabel08281819463D

 29 29  0  0  0  0  0  0  0  0999 V2000
   -3.5540   -1.3046   -1.7662 C   0  0  0  0  0  0  0  0  0  0  0  0
   -2.8348   -0.5574   -0.8434 C   0  0  0  0  0  0  0  0  0  0  0  0
   -3.0557    0.6654   -0.6681 C   0  0  0  0  0  0  0  0  0  0  0  0
   -3.9215    1.5469   -1.2718 C   0  0  0  0  0  0  0  0  0  0  0  0
   -4.6708    0.8517   -2.2488 C   0  0  0  0  0  0  0  0  0  0  0  0
   -4.4813   -0.5247   -2.5029 C   0  0  0  0  0  0  0  0  0  0  0  0
   -3.4653   -2.3713   -1.9464 H   0  0  0  0  0  0  0  0  0  0  0  0
   -5.4202    1.3938   -2.8166 H   0  0  0  0  0  0  0  0  0  0  0  0
   -4.0658    2.5982   -1.0553 H   0  0  0  0  0  0  0  0  0  0  0  0
   -0.4953   -1.3341   -2.0952 N   0  0  0  0  0  0  0  0  0  0  0  0
   -0.5345   -2.0781   -2.9294 N   0  0  0  0  0  0  0  0  0  0  0  0
   -0.5867   -3.0018   -3.9531 C   0  0  0  0  0  0  0  0  0  0  0  0
   -1.8375   -3.3056   -4.5266 C   0  0  0  0  0  0  0  0  0  0  0  0
    0.6337   -3.5874   -4.3554 C   0  0  0  0  0  0  0  0  0  0  0  0
   -1.8443   -4.2479   -5.5474 C   0  0  0  0  0  0  0  0  0  0  0  0
   -2.7631   -2.8355   -4.1991 H   0  0  0  0  0  0  0  0  0  0  0  0
    0.5814   -4.5201   -5.3756 C   0  0  0  0  0  0  0  0  0  0  0  0
    1.5672   -3.3126   -3.8774 H   0  0  0  0  0  0  0  0  0  0  0  0
   -0.6495   -4.8510   -5.9685 C   0  0  0  0  0  0  0  0  0  0  0  0
   -2.7826   -4.5164   -6.0177 H   0  0  0  0  0  0  0  0  0  0  0  0
    1.4805   -5.0095   -5.7330 H   0  0  0  0  0  0  0  0  0  0  0  0
   -0.6187   -5.8784   -7.0699 C   0  0  0  0  0  0  0  0  0  0  0  0
    0.4043   -6.4034   -7.4440 O   0  0  0  0  0  0  0  0  0  0  0  0
   -1.8395   -6.1250   -7.5665 O   0  0  0  0  0  0  0  0  0  0  0  0
   -1.7479   -6.7928   -8.2686 H   0  0  0  0  0  0  0  0  0  0  0  0
   -5.2035   -1.2192   -3.6056 C   0  0  0  0  0  0  0  0  0  0  0  0
   -4.8175   -2.2639   -4.1101 O   0  0  0  0  0  0  0  0  0  0  0  0
   -6.3106   -0.5830   -4.0103 O   0  0  0  0  0  0  0  0  0  0  0  0
   -6.6987   -1.0982   -4.7385 H   0  0  0  0  0  0  0  0  0  0  0  0
  1  2  2  0  0  0  0
  2  3  1  0  0  0  0
  4  9  1  0  0  0  0
  4  3  2  0  0  0  0
  5  4  1  0  0  0  0
  6  5  2  0  0  0  0
  6  1  1  0  0  0  0
  7  1  1  0  0  0  0
  8  5  1  0  0  0  0
 11 10  1  0  0  0  0
 12 11  1  0  0  0  0
 13 16  1  0  0  0  0
 13 12  2  0  0  0  0
 14 12  1  0  0  0  0
 14 18  1  0  0  0  0
 15 13  1  0  0  0  0
 17 14  2  0  0  0  0
 19 15  2  0  0  0  0
 19 17  1  0  0  0  0
 20 15  1  0  0  0  0
 21 17  1  0  0  0  0
 22 19  1  0  0  0  0
 23 22  2  0  0  0  0
 24 22  1  0  0  0  0
 25 24  1  0  0  0  0
 26  6  1  0  0  0  0
 27 26  2  0  0  0  0
 28 26  1  0  0  0  0
 29 28  1  0  0  0  0
M  RAD  4   2   2   3   2  10   3  11   2
M  END
