Coordinates from ORCA-job 1g-Schema5-R8-G+-B3LYPG-6-31G_dp-scan-d49-09-n400
 OpenBabel08281819463D

 29 29  0  0  0  0  0  0  0  0999 V2000
   -3.4413   -1.2385   -1.9985 C   0  0  0  0  0  0  0  0  0  0  0  0
   -2.5436   -0.4575   -1.2754 C   0  0  0  0  0  0  0  0  0  0  0  0
   -2.8087    0.7627   -1.1063 C   0  0  0  0  0  0  0  0  0  0  0  0
   -3.8045    1.6051   -1.5259 C   0  0  0  0  0  0  0  0  0  0  0  0
   -4.7189    0.8506   -2.2994 C   0  0  0  0  0  0  0  0  0  0  0  0
   -4.5306   -0.5264   -2.5456 C   0  0  0  0  0  0  0  0  0  0  0  0
   -3.3503   -2.3063   -2.1704 H   0  0  0  0  0  0  0  0  0  0  0  0
   -5.5895    1.3509   -2.7114 H   0  0  0  0  0  0  0  0  0  0  0  0
   -3.9331    2.6587   -1.3126 H   0  0  0  0  0  0  0  0  0  0  0  0
   -0.4900   -1.5516   -1.8372 N   0  0  0  0  0  0  0  0  0  0  0  0
   -0.5455   -2.2478   -2.7186 N   0  0  0  0  0  0  0  0  0  0  0  0
   -0.5963   -3.0977   -3.8073 C   0  0  0  0  0  0  0  0  0  0  0  0
   -1.8129   -3.2840   -4.4950 C   0  0  0  0  0  0  0  0  0  0  0  0
    0.6095   -3.7390   -4.1653 C   0  0  0  0  0  0  0  0  0  0  0  0
   -1.8005   -4.1534   -5.5783 C   0  0  0  0  0  0  0  0  0  0  0  0
   -2.7313   -2.7841   -4.2013 H   0  0  0  0  0  0  0  0  0  0  0  0
    0.5816   -4.5962   -5.2516 C   0  0  0  0  0  0  0  0  0  0  0  0
    1.5186   -3.5600   -3.6021 H   0  0  0  0  0  0  0  0  0  0  0  0
   -0.6160   -4.8045   -5.9552 C   0  0  0  0  0  0  0  0  0  0  0  0
   -2.7151   -4.3300   -6.1316 H   0  0  0  0  0  0  0  0  0  0  0  0
    1.4748   -5.1187   -5.5753 H   0  0  0  0  0  0  0  0  0  0  0  0
   -0.5641   -5.7551   -7.1221 C   0  0  0  0  0  0  0  0  0  0  0  0
    0.4478   -6.3281   -7.4540 O   0  0  0  0  0  0  0  0  0  0  0  0
   -1.7545   -5.8805   -7.7275 O   0  0  0  0  0  0  0  0  0  0  0  0
   -1.6491   -6.5054   -8.4662 H   0  0  0  0  0  0  0  0  0  0  0  0
   -5.4118   -1.2973   -3.4714 C   0  0  0  0  0  0  0  0  0  0  0  0
   -5.0713   -2.3487   -3.9879 O   0  0  0  0  0  0  0  0  0  0  0  0
   -6.5961   -0.7124   -3.6959 O   0  0  0  0  0  0  0  0  0  0  0  0
   -7.0891   -1.2706   -4.3220 H   0  0  0  0  0  0  0  0  0  0  0  0
  1  2  2  0  0  0  0
  2  3  1  0  0  0  0
  4  9  1  0  0  0  0
  4  3  2  0  0  0  0
  5  4  1  0  0  0  0
  6  5  2  0  0  0  0
  6  1  1  0  0  0  0
  7  1  1  0  0  0  0
  8  5  1  0  0  0  0
 11 10  1  0  0  0  0
 12 11  1  0  0  0  0
 13 16  1  0  0  0  0
 13 12  2  0  0  0  0
 14 12  1  0  0  0  0
 14 18  1  0  0  0  0
 15 13  1  0  0  0  0
 17 14  2  0  0  0  0
 19 15  2  0  0  0  0
 19 17  1  0  0  0  0
 20 15  1  0  0  0  0
 21 17  1  0  0  0  0
 22 19  1  0  0  0  0
 23 22  2  0  0  0  0
 24 22  1  0  0  0  0
 25 24  1  0  0  0  0
 26  6  1  0  0  0  0
 27 26  2  0  0  0  0
 28 26  1  0  0  0  0
 29 28  1  0  0  0  0
M  RAD  4   2   2   3   2  10   3  11   2
M  END
