Coordinates from ORCA-job 1g-Schema5-R8-G+-B3LYPG-6-31G_dp-scan-d49-09-n400
 OpenBabel08281819463D

 29 29  0  0  0  0  0  0  0  0999 V2000
   -3.9923   -1.4075   -2.0348 C   0  0  0  0  0  0  0  0  0  0  0  0
   -2.7049   -0.9701   -2.3878 C   0  0  0  0  0  0  0  0  0  0  0  0
   -2.6253    0.2186   -2.8403 C   0  0  0  0  0  0  0  0  0  0  0  0
   -3.4722    1.2368   -3.1529 C   0  0  0  0  0  0  0  0  0  0  0  0
   -4.7762    0.7986   -2.8094 C   0  0  0  0  0  0  0  0  0  0  0  0
   -5.0270   -0.4811   -2.2751 C   0  0  0  0  0  0  0  0  0  0  0  0
   -4.2147   -2.3821   -1.6118 H   0  0  0  0  0  0  0  0  0  0  0  0
   -5.6008    1.4893   -2.9566 H   0  0  0  0  0  0  0  0  0  0  0  0
   -3.2509    2.2170   -3.5542 H   0  0  0  0  0  0  0  0  0  0  0  0
   -1.2186   -2.1040   -1.7273 N   0  0  0  0  0  0  0  0  0  0  0  0
   -0.7255   -2.8523   -2.4479 N   0  0  0  0  0  0  0  0  0  0  0  0
   -0.5404   -3.4664   -3.6802 C   0  0  0  0  0  0  0  0  0  0  0  0
   -1.3435   -3.0944   -4.7755 C   0  0  0  0  0  0  0  0  0  0  0  0
    0.4600   -4.4499   -3.7647 C   0  0  0  0  0  0  0  0  0  0  0  0
   -1.1233   -3.7347   -5.9864 C   0  0  0  0  0  0  0  0  0  0  0  0
   -2.1082   -2.3341   -4.6675 H   0  0  0  0  0  0  0  0  0  0  0  0
    0.6606   -5.0736   -4.9874 C   0  0  0  0  0  0  0  0  0  0  0  0
    1.0501   -4.7026   -2.8908 H   0  0  0  0  0  0  0  0  0  0  0  0
   -0.1254   -4.7186   -6.0931 C   0  0  0  0  0  0  0  0  0  0  0  0
   -1.7197   -3.4791   -6.8542 H   0  0  0  0  0  0  0  0  0  0  0  0
    1.4190   -5.8388   -5.1112 H   0  0  0  0  0  0  0  0  0  0  0  0
    0.1486   -5.4350   -7.3875 C   0  0  0  0  0  0  0  0  0  0  0  0
    1.0016   -6.2845   -7.5013 O   0  0  0  0  0  0  0  0  0  0  0  0
   -0.6563   -5.0186   -8.3796 O   0  0  0  0  0  0  0  0  0  0  0  0
   -0.4233   -5.5214   -9.1793 H   0  0  0  0  0  0  0  0  0  0  0  0
   -6.4162   -0.9300   -1.9247 C   0  0  0  0  0  0  0  0  0  0  0  0
   -6.6682   -2.0317   -1.4909 O   0  0  0  0  0  0  0  0  0  0  0  0
   -7.3373    0.0246   -2.1486 O   0  0  0  0  0  0  0  0  0  0  0  0
   -8.2015   -0.3398   -1.8902 H   0  0  0  0  0  0  0  0  0  0  0  0
  1  7  1  0  0  0  0
  2  1  2  0  0  0  0
  3  2  1  0  0  0  0
  4  3  2  0  0  0  0
  4  5  1  0  0  0  0
  5  6  2  0  0  0  0
  6  1  1  0  0  0  0
  6 26  1  0  0  0  0
  8  5  1  0  0  0  0
  9  4  1  0  0  0  0
 11 10  2  0  0  0  0
 12 11  1  0  0  0  0
 13 16  1  0  0  0  0
 13 12  2  0  0  0  0
 14 12  1  0  0  0  0
 14 18  1  0  0  0  0
 15 13  1  0  0  0  0
 17 14  2  0  0  0  0
 19 15  2  0  0  0  0
 19 17  1  0  0  0  0
 20 15  1  0  0  0  0
 21 17  1  0  0  0  0
 22 19  1  0  0  0  0
 23 22  2  0  0  0  0
 24 22  1  0  0  0  0
 25 24  1  0  0  0  0
 26 27  2  0  0  0  0
 28 26  1  0  0  0  0
 28 29  1  0  0  0  0
M  RAD  3   2   2   3   2  10   2
M  END
