Coordinates from ORCA-job 1g-Schema5-R8-G+-B3LYPG-6-31G_dp-scan-d49-09-n400
 OpenBabel08281819463D

 29 31  0  0  1  0  0  0  0  0999 V2000
   -4.0651   -1.5858   -1.5551 C   0  0  0  0  0  0  0  0  0  0  0  0
   -3.0054   -2.5025   -2.1489 C   0  0  0  0  0  0  0  0  0  0  0  0
   -2.9009   -2.3329   -3.7071 C   0  0  0  0  0  0  0  0  0  0  0  0
   -3.6447   -1.4046   -4.3935 C   0  0  0  0  0  0  0  0  0  0  0  0
   -4.5501   -0.5857   -3.6961 C   0  0  0  0  0  0  0  0  0  0  0  0
   -4.7753   -0.6812   -2.2969 C   0  0  0  0  0  0  0  0  0  0  0  0
   -4.2210   -1.6593   -0.4805 H   0  0  0  0  0  0  0  0  0  0  0  0
   -5.1143    0.1598   -4.2492 H   0  0  0  0  0  0  0  0  0  0  0  0
   -3.5512   -1.2743   -5.4685 H   0  0  0  0  0  0  0  0  0  0  0  0
   -2.4485   -3.0816   -1.6418 N   0  0  0  0  0  0  0  0  0  0  0  0
   -1.3831   -3.9218   -1.9345 N   0  0  0  0  0  0  0  0  0  0  0  0
   -1.0989   -3.9712   -3.2172 C   0  0  0  0  0  0  0  0  0  0  0  0
   -1.9732   -3.3357   -4.2841 C   0  0  2  0  0  0  0  0  0  0  0  0
    0.0544   -4.7097   -3.6397 C   0  0  0  0  0  0  0  0  0  0  0  0
   -1.3406   -3.1626   -5.6283 C   0  0  0  0  0  0  0  0  0  0  0  0
   -2.6875   -4.1803   -4.4824 H   0  0  0  0  0  0  0  0  0  0  0  0
    0.4870   -4.6258   -4.9288 C   0  0  0  0  0  0  0  0  0  0  0  0
    0.5945   -5.2710   -2.8852 H   0  0  0  0  0  0  0  0  0  0  0  0
   -0.1918   -3.8163   -5.9221 C   0  0  0  0  0  0  0  0  0  0  0  0
   -1.8520   -2.5783   -6.3848 H   0  0  0  0  0  0  0  0  0  0  0  0
    1.3845   -5.1439   -5.2513 H   0  0  0  0  0  0  0  0  0  0  0  0
    0.4525   -3.7321   -7.2759 C   0  0  0  0  0  0  0  0  0  0  0  0
    1.4783   -4.3103   -7.5501 O   0  0  0  0  0  0  0  0  0  0  0  0
   -0.2376   -2.9517   -8.1268 O   0  0  0  0  0  0  0  0  0  0  0  0
    0.2423   -2.9458   -8.9732 H   0  0  0  0  0  0  0  0  0  0  0  0
   -5.7797    0.1966   -1.5939 C   0  0  0  0  0  0  0  0  0  0  0  0
   -5.9925    0.1325   -0.4077 O   0  0  0  0  0  0  0  0  0  0  0  0
   -6.3898    1.0358   -2.4479 O   0  0  0  0  0  0  0  0  0  0  0  0
   -7.0222    1.5739   -1.9401 H   0  0  0  0  0  0  0  0  0  0  0  0
  1  7  1  0  0  0  0
  2 10  1  0  0  0  0
  2  1  2  0  0  0  0
  3  2  1  0  0  0  0
  4  3  2  0  0  0  0
  4  5  1  0  0  0  0
  5  6  2  0  0  0  0
  6 26  1  0  0  0  0
  6  1  1  0  0  0  0
  8  5  1  0  0  0  0
  9  4  1  0  0  0  0
 11 10  1  0  0  0  0
 12 11  2  0  0  0  0
 13 16  1  6  0  0  0
 13  3  1  0  0  0  0
 13 12  1  0  0  0  0
 14 12  1  0  0  0  0
 14 18  1  0  0  0  0
 15 13  1  0  0  0  0
 17 14  2  0  0  0  0
 19 15  2  0  0  0  0
 19 17  1  0  0  0  0
 20 15  1  0  0  0  0
 21 17  1  0  0  0  0
 22 19  1  0  0  0  0
 23 22  2  0  0  0  0
 24 22  1  0  0  0  0
 25 24  1  0  0  0  0
 26 27  2  0  0  0  0
 28 29  1  0  0  0  0
 28 26  1  0  0  0  0
M  RAD  1  10   2
M  END
