Coordinates from ORCA-job 1g-Schema5-R8-G+-B3LYPG-6-31G_dp-scan-d49-09-n400
 OpenBabel08281819463D

 29 29  0  0  0  0  0  0  0  0999 V2000
   -3.5572   -1.3033   -1.7566 C   0  0  0  0  0  0  0  0  0  0  0  0
   -2.8497   -0.5599   -0.8223 C   0  0  0  0  0  0  0  0  0  0  0  0
   -3.0715    0.6617   -0.6417 C   0  0  0  0  0  0  0  0  0  0  0  0
   -3.9332    1.5450   -1.2491 C   0  0  0  0  0  0  0  0  0  0  0  0
   -4.6723    0.8547   -2.2372 C   0  0  0  0  0  0  0  0  0  0  0  0
   -4.4790   -0.5201   -2.4973 C   0  0  0  0  0  0  0  0  0  0  0  0
   -3.4656   -2.3690   -1.9412 H   0  0  0  0  0  0  0  0  0  0  0  0
   -5.4166    1.3992   -2.8093 H   0  0  0  0  0  0  0  0  0  0  0  0
   -4.0807    2.5951   -1.0285 H   0  0  0  0  0  0  0  0  0  0  0  0
   -0.5057   -1.3164   -2.1215 N   0  0  0  0  0  0  0  0  0  0  0  0
   -0.5394   -2.0662   -2.9505 N   0  0  0  0  0  0  0  0  0  0  0  0
   -0.5878   -2.9973   -3.9677 C   0  0  0  0  0  0  0  0  0  0  0  0
   -1.8383   -3.3061   -4.5392 C   0  0  0  0  0  0  0  0  0  0  0  0
    0.6337   -3.5832   -4.3661 C   0  0  0  0  0  0  0  0  0  0  0  0
   -1.8440   -4.2541   -5.5547 C   0  0  0  0  0  0  0  0  0  0  0  0
   -2.7634   -2.8339   -4.2126 H   0  0  0  0  0  0  0  0  0  0  0  0
    0.5824   -4.5219   -5.3807 C   0  0  0  0  0  0  0  0  0  0  0  0
    1.5668   -3.3041   -3.8898 H   0  0  0  0  0  0  0  0  0  0  0  0
   -0.6481   -4.8578   -5.9719 C   0  0  0  0  0  0  0  0  0  0  0  0
   -2.7817   -4.5266   -6.0236 H   0  0  0  0  0  0  0  0  0  0  0  0
    1.4821   -5.0123   -5.7353 H   0  0  0  0  0  0  0  0  0  0  0  0
   -0.6155   -5.8913   -7.0677 C   0  0  0  0  0  0  0  0  0  0  0  0
    0.4080   -6.4190   -7.4365 O   0  0  0  0  0  0  0  0  0  0  0  0
   -1.8362   -6.1448   -7.5608 O   0  0  0  0  0  0  0  0  0  0  0  0
   -1.7440   -6.8184   -8.2573 H   0  0  0  0  0  0  0  0  0  0  0  0
   -5.1931   -1.2092   -3.6083 C   0  0  0  0  0  0  0  0  0  0  0  0
   -4.8041   -2.2518   -4.1152 O   0  0  0  0  0  0  0  0  0  0  0  0
   -6.2974   -0.5714   -4.0179 O   0  0  0  0  0  0  0  0  0  0  0  0
   -6.6804   -1.0836   -4.7509 H   0  0  0  0  0  0  0  0  0  0  0  0
  1  2  2  0  0  0  0
  2  3  1  0  0  0  0
  4  9  1  0  0  0  0
  4  3  2  0  0  0  0
  5  4  1  0  0  0  0
  6  5  2  0  0  0  0
  6  1  1  0  0  0  0
  7  1  1  0  0  0  0
  8  5  1  0  0  0  0
 11 10  1  0  0  0  0
 12 11  1  0  0  0  0
 13 16  1  0  0  0  0
 13 12  2  0  0  0  0
 14 12  1  0  0  0  0
 14 18  1  0  0  0  0
 15 13  1  0  0  0  0
 17 14  2  0  0  0  0
 19 15  2  0  0  0  0
 19 17  1  0  0  0  0
 20 15  1  0  0  0  0
 21 17  1  0  0  0  0
 22 19  1  0  0  0  0
 23 22  2  0  0  0  0
 24 22  1  0  0  0  0
 25 24  1  0  0  0  0
 26  6  1  0  0  0  0
 27 26  2  0  0  0  0
 28 26  1  0  0  0  0
 29 28  1  0  0  0  0
M  RAD  4   2   2   3   2  10   3  11   2
M  END
