Coordinates from ORCA-job 1g-Schema5-R8-G+-B3LYPG-6-31G_dp-scan-d49-09-n400
 OpenBabel08281819463D

 29 29  0  0  0  0  0  0  0  0999 V2000
   -3.4271   -0.5061   -0.9275 C   0  0  0  0  0  0  0  0  0  0  0  0
   -3.5990    0.1228    0.2864 C   0  0  0  0  0  0  0  0  0  0  0  0
   -4.4281    1.0314    0.5152 C   0  0  0  0  0  0  0  0  0  0  0  0
   -5.3406    1.6232   -0.3359 C   0  0  0  0  0  0  0  0  0  0  0  0
   -5.2424    1.0428   -1.6168 C   0  0  0  0  0  0  0  0  0  0  0  0
   -4.3147    0.0137   -1.9111 C   0  0  0  0  0  0  0  0  0  0  0  0
   -2.7372   -1.3087   -1.1604 H   0  0  0  0  0  0  0  0  0  0  0  0
   -5.8977    1.3979   -2.4050 H   0  0  0  0  0  0  0  0  0  0  0  0
   -6.0463    2.4122   -0.1042 H   0  0  0  0  0  0  0  0  0  0  0  0
   -0.6846   -1.1609   -3.2104 N   0  0  0  0  0  0  0  0  0  0  0  0
   -0.6098   -2.0487   -3.8791 N   0  0  0  0  0  0  0  0  0  0  0  0
   -0.5980   -3.1501   -4.7077 C   0  0  0  0  0  0  0  0  0  0  0  0
   -1.8390   -3.6086   -5.1923 C   0  0  0  0  0  0  0  0  0  0  0  0
    0.6434   -3.7448   -5.0105 C   0  0  0  0  0  0  0  0  0  0  0  0
   -1.8152   -4.7227   -6.0199 C   0  0  0  0  0  0  0  0  0  0  0  0
   -2.7485   -3.0873   -4.9131 H   0  0  0  0  0  0  0  0  0  0  0  0
    0.6234   -4.8528   -5.8400 C   0  0  0  0  0  0  0  0  0  0  0  0
    1.5675   -3.3466   -4.6070 H   0  0  0  0  0  0  0  0  0  0  0  0
   -0.5958   -5.3402   -6.3409 C   0  0  0  0  0  0  0  0  0  0  0  0
   -2.7400   -5.1199   -6.4204 H   0  0  0  0  0  0  0  0  0  0  0  0
    1.5401   -5.3617   -6.1163 H   0  0  0  0  0  0  0  0  0  0  0  0
   -0.5281   -6.5521   -7.2337 C   0  0  0  0  0  0  0  0  0  0  0  0
    0.5138   -7.0935   -7.5214 O   0  0  0  0  0  0  0  0  0  0  0  0
   -1.7417   -6.9397   -7.6529 O   0  0  0  0  0  0  0  0  0  0  0  0
   -1.6272   -7.7248   -8.2167 H   0  0  0  0  0  0  0  0  0  0  0  0
   -4.2309   -0.5610   -3.2711 C   0  0  0  0  0  0  0  0  0  0  0  0
   -3.3521   -1.3378   -3.6460 O   0  0  0  0  0  0  0  0  0  0  0  0
   -5.2122   -0.1629   -4.0940 O   0  0  0  0  0  0  0  0  0  0  0  0
   -5.0638   -0.5788   -4.9589 H   0  0  0  0  0  0  0  0  0  0  0  0
  1  2  2  0  0  0  0
  2  3  1  0  0  0  0
  4  9  1  0  0  0  0
  4  3  2  0  0  0  0
  5  4  1  0  0  0  0
  6  5  2  0  0  0  0
  6  1  1  0  0  0  0
  7  1  1  0  0  0  0
  8  5  1  0  0  0  0
 11 10  1  0  0  0  0
 12 11  1  0  0  0  0
 13 16  1  0  0  0  0
 13 12  2  0  0  0  0
 14 12  1  0  0  0  0
 14 18  1  0  0  0  0
 15 13  1  0  0  0  0
 17 14  2  0  0  0  0
 19 15  2  0  0  0  0
 19 17  1  0  0  0  0
 20 15  1  0  0  0  0
 21 17  1  0  0  0  0
 22 19  1  0  0  0  0
 23 22  2  0  0  0  0
 24 22  1  0  0  0  0
 25 24  1  0  0  0  0
 26  6  1  0  0  0  0
 27 26  2  0  0  0  0
 28 26  1  0  0  0  0
 29 28  1  0  0  0  0
M  RAD  4   2   2   3   2  10   3  11   2
M  END
