Coordinates from ORCA-job 1g-Schema5-R8-G+-B3LYPG-6-31G_dp-scan-d49-09-n400
 OpenBabel08281819463D

 29 29  0  0  0  0  0  0  0  0999 V2000
   -3.5261   -0.9751   -1.2149 C   0  0  0  0  0  0  0  0  0  0  0  0
   -3.2756   -0.3420   -0.0153 C   0  0  0  0  0  0  0  0  0  0  0  0
   -3.7313    0.7783    0.3057 C   0  0  0  0  0  0  0  0  0  0  0  0
   -4.5387    1.6436   -0.4048 C   0  0  0  0  0  0  0  0  0  0  0  0
   -4.8412    1.0831   -1.6642 C   0  0  0  0  0  0  0  0  0  0  0  0
   -4.3440   -0.1785   -2.0658 C   0  0  0  0  0  0  0  0  0  0  0  0
   -3.2046   -1.9656   -1.5145 H   0  0  0  0  0  0  0  0  0  0  0  0
   -5.4753    1.6386   -2.3480 H   0  0  0  0  0  0  0  0  0  0  0  0
   -4.9182    2.6070   -0.0872 H   0  0  0  0  0  0  0  0  0  0  0  0
   -1.1685   -0.9996   -3.1909 N   0  0  0  0  0  0  0  0  0  0  0  0
   -1.0535   -1.8961   -3.8432 N   0  0  0  0  0  0  0  0  0  0  0  0
   -0.8967   -3.0107   -4.6406 C   0  0  0  0  0  0  0  0  0  0  0  0
   -2.0458   -3.5884   -5.2150 C   0  0  0  0  0  0  0  0  0  0  0  0
    0.4152   -3.4985   -4.8234 C   0  0  0  0  0  0  0  0  0  0  0  0
   -1.8509   -4.7115   -6.0082 C   0  0  0  0  0  0  0  0  0  0  0  0
   -3.0212   -3.1517   -5.0310 H   0  0  0  0  0  0  0  0  0  0  0  0
    0.5641   -4.6202   -5.6196 C   0  0  0  0  0  0  0  0  0  0  0  0
    1.2630   -3.0108   -4.3559 H   0  0  0  0  0  0  0  0  0  0  0  0
   -0.5600   -5.2247   -6.2084 C   0  0  0  0  0  0  0  0  0  0  0  0
   -2.7000   -5.1967   -6.4743 H   0  0  0  0  0  0  0  0  0  0  0  0
    1.5427   -5.0503   -5.8024 H   0  0  0  0  0  0  0  0  0  0  0  0
   -0.3094   -6.4437   -7.0577 C   0  0  0  0  0  0  0  0  0  0  0  0
    0.7962   -6.9008   -7.2327 O   0  0  0  0  0  0  0  0  0  0  0  0
   -1.4417   -6.9410   -7.5764 O   0  0  0  0  0  0  0  0  0  0  0  0
   -1.2099   -7.7247   -8.1051 H   0  0  0  0  0  0  0  0  0  0  0  0
   -4.6249   -0.7146   -3.4189 C   0  0  0  0  0  0  0  0  0  0  0  0
   -3.9698   -1.6099   -3.9448 O   0  0  0  0  0  0  0  0  0  0  0  0
   -5.6558   -0.1261   -4.0386 O   0  0  0  0  0  0  0  0  0  0  0  0
   -5.7502   -0.5349   -4.9154 H   0  0  0  0  0  0  0  0  0  0  0  0
  1  2  2  0  0  0  0
  2  3  1  0  0  0  0
  4  9  1  0  0  0  0
  4  3  2  0  0  0  0
  5  4  1  0  0  0  0
  6  5  2  0  0  0  0
  6  1  1  0  0  0  0
  7  1  1  0  0  0  0
  8  5  1  0  0  0  0
 11 10  1  0  0  0  0
 12 11  1  0  0  0  0
 13 16  1  0  0  0  0
 13 12  2  0  0  0  0
 14 12  1  0  0  0  0
 14 18  1  0  0  0  0
 15 13  1  0  0  0  0
 17 14  2  0  0  0  0
 19 15  2  0  0  0  0
 19 17  1  0  0  0  0
 20 15  1  0  0  0  0
 21 17  1  0  0  0  0
 22 19  1  0  0  0  0
 23 22  2  0  0  0  0
 24 22  1  0  0  0  0
 25 24  1  0  0  0  0
 26  6  1  0  0  0  0
 27 26  2  0  0  0  0
 28 26  1  0  0  0  0
 29 28  1  0  0  0  0
M  RAD  4   2   2   3   2  10   3  11   2
M  END
