Coordinates from ORCA-job 1g-Schema5-R8-G+-B3LYPG-6-31G_dp-scan-d49-09-n400
 OpenBabel08281819463D

 29 29  0  0  0  0  0  0  0  0999 V2000
   -4.0439   -1.3573   -2.0671 C   0  0  0  0  0  0  0  0  0  0  0  0
   -2.7746   -0.8822   -2.4312 C   0  0  0  0  0  0  0  0  0  0  0  0
   -2.7067    0.3192   -2.8327 C   0  0  0  0  0  0  0  0  0  0  0  0
   -3.5709    1.3483   -3.0633 C   0  0  0  0  0  0  0  0  0  0  0  0
   -4.8612    0.8825   -2.7081 C   0  0  0  0  0  0  0  0  0  0  0  0
   -5.0900   -0.4246   -2.2314 C   0  0  0  0  0  0  0  0  0  0  0  0
   -4.2537   -2.3510   -1.6853 H   0  0  0  0  0  0  0  0  0  0  0  0
   -5.6966    1.5689   -2.8044 H   0  0  0  0  0  0  0  0  0  0  0  0
   -3.3691    2.3472   -3.4266 H   0  0  0  0  0  0  0  0  0  0  0  0
   -1.1525   -2.1075   -1.7849 N   0  0  0  0  0  0  0  0  0  0  0  0
   -0.7143   -2.8324   -2.5457 N   0  0  0  0  0  0  0  0  0  0  0  0
   -0.5020   -3.4860   -3.7490 C   0  0  0  0  0  0  0  0  0  0  0  0
   -1.2595   -3.0963   -4.8704 C   0  0  0  0  0  0  0  0  0  0  0  0
    0.4633   -4.5070   -3.7849 C   0  0  0  0  0  0  0  0  0  0  0  0
   -1.0289   -3.7628   -6.0651 C   0  0  0  0  0  0  0  0  0  0  0  0
   -1.9935   -2.3023   -4.7895 H   0  0  0  0  0  0  0  0  0  0  0  0
    0.6710   -5.1561   -4.9927 C   0  0  0  0  0  0  0  0  0  0  0  0
    1.0191   -4.7689   -2.8916 H   0  0  0  0  0  0  0  0  0  0  0  0
   -0.0685   -4.7868   -6.1263 C   0  0  0  0  0  0  0  0  0  0  0  0
   -1.5879   -3.4963   -6.9542 H   0  0  0  0  0  0  0  0  0  0  0  0
    1.4010   -5.9527   -5.0842 H   0  0  0  0  0  0  0  0  0  0  0  0
    0.2156   -5.5341   -7.4019 C   0  0  0  0  0  0  0  0  0  0  0  0
    1.0349   -6.4203   -7.4746 O   0  0  0  0  0  0  0  0  0  0  0  0
   -0.5388   -5.0984   -8.4239 O   0  0  0  0  0  0  0  0  0  0  0  0
   -0.3036   -5.6212   -9.2102 H   0  0  0  0  0  0  0  0  0  0  0  0
   -6.4656   -0.8986   -1.8656 C   0  0  0  0  0  0  0  0  0  0  0  0
   -6.7027   -2.0218   -1.4794 O   0  0  0  0  0  0  0  0  0  0  0  0
   -7.3997    0.0592   -2.0154 O   0  0  0  0  0  0  0  0  0  0  0  0
   -8.2527   -0.3268   -1.7515 H   0  0  0  0  0  0  0  0  0  0  0  0
  1  7  1  0  0  0  0
  2  1  2  0  0  0  0
  3  2  1  0  0  0  0
  4  3  2  0  0  0  0
  4  5  1  0  0  0  0
  5  6  2  0  0  0  0
  6  1  1  0  0  0  0
  6 26  1  0  0  0  0
  8  5  1  0  0  0  0
  9  4  1  0  0  0  0
 11 10  1  0  0  0  0
 12 11  1  0  0  0  0
 13 16  1  0  0  0  0
 13 12  2  0  0  0  0
 14 12  1  0  0  0  0
 14 18  1  0  0  0  0
 15 13  1  0  0  0  0
 17 14  2  0  0  0  0
 19 15  2  0  0  0  0
 19 17  1  0  0  0  0
 20 15  1  0  0  0  0
 21 17  1  0  0  0  0
 22 19  1  0  0  0  0
 23 22  2  0  0  0  0
 24 22  1  0  0  0  0
 25 24  1  0  0  0  0
 26 27  2  0  0  0  0
 28 26  1  0  0  0  0
 28 29  1  0  0  0  0
M  RAD  4   2   2   3   2  10   3  11   2
M  END
