Coordinates from ORCA-job 1g-Schema5-R8-G+-B3LYPG-6-31G_dp-scan-d49-09-n400
 OpenBabel08281819463D

 29 29  0  0  0  0  0  0  0  0999 V2000
   -3.6936   -1.3167   -1.4790 C   0  0  0  0  0  0  0  0  0  0  0  0
   -3.1586   -0.7770   -0.3252 C   0  0  0  0  0  0  0  0  0  0  0  0
   -3.2996    0.4150    0.0289 C   0  0  0  0  0  0  0  0  0  0  0  0
   -3.9576    1.4559   -0.5933 C   0  0  0  0  0  0  0  0  0  0  0  0
   -4.5287    0.9998   -1.8022 C   0  0  0  0  0  0  0  0  0  0  0  0
   -4.3919   -0.3360   -2.2415 C   0  0  0  0  0  0  0  0  0  0  0  0
   -3.6463   -2.3493   -1.8076 H   0  0  0  0  0  0  0  0  0  0  0  0
   -5.0923    1.6974   -2.4136 H   0  0  0  0  0  0  0  0  0  0  0  0
   -4.0643    2.4760   -0.2444 H   0  0  0  0  0  0  0  0  0  0  0  0
   -1.3859   -0.9138   -3.0409 N   0  0  0  0  0  0  0  0  0  0  0  0
   -1.2204   -1.7930   -3.7104 N   0  0  0  0  0  0  0  0  0  0  0  0
   -1.0046   -2.8966   -4.5099 C   0  0  0  0  0  0  0  0  0  0  0  0
   -2.1244   -3.5401   -5.0717 C   0  0  0  0  0  0  0  0  0  0  0  0
    0.3308   -3.3108   -4.7031 C   0  0  0  0  0  0  0  0  0  0  0  0
   -1.8748   -4.6560   -5.8603 C   0  0  0  0  0  0  0  0  0  0  0  0
   -3.1227   -3.1554   -4.8873 H   0  0  0  0  0  0  0  0  0  0  0  0
    0.5346   -4.4280   -5.4934 C   0  0  0  0  0  0  0  0  0  0  0  0
    1.1540   -2.7739   -4.2458 H   0  0  0  0  0  0  0  0  0  0  0  0
   -0.5593   -5.0984   -6.0680 C   0  0  0  0  0  0  0  0  0  0  0  0
   -2.7001   -5.1890   -6.3167 H   0  0  0  0  0  0  0  0  0  0  0  0
    1.5338   -4.8047   -5.6823 H   0  0  0  0  0  0  0  0  0  0  0  0
   -0.2484   -6.3079   -6.9106 C   0  0  0  0  0  0  0  0  0  0  0  0
    0.8799   -6.7016   -7.0958 O   0  0  0  0  0  0  0  0  0  0  0  0
   -1.3556   -6.8753   -7.4110 O   0  0  0  0  0  0  0  0  0  0  0  0
   -1.0842   -7.6487   -7.9360 H   0  0  0  0  0  0  0  0  0  0  0  0
   -4.9171   -0.7691   -3.5626 C   0  0  0  0  0  0  0  0  0  0  0  0
   -4.4875   -1.7398   -4.1724 O   0  0  0  0  0  0  0  0  0  0  0  0
   -5.8917    0.0123   -4.0440 O   0  0  0  0  0  0  0  0  0  0  0  0
   -6.1554   -0.3409   -4.9111 H   0  0  0  0  0  0  0  0  0  0  0  0
  1  2  2  0  0  0  0
  2  3  1  0  0  0  0
  4  9  1  0  0  0  0
  4  3  2  0  0  0  0
  5  4  1  0  0  0  0
  6  5  2  0  0  0  0
  6  1  1  0  0  0  0
  7  1  1  0  0  0  0
  8  5  1  0  0  0  0
 11 10  1  0  0  0  0
 12 11  1  0  0  0  0
 13 16  1  0  0  0  0
 13 12  2  0  0  0  0
 14 12  1  0  0  0  0
 14 18  1  0  0  0  0
 15 13  1  0  0  0  0
 17 14  2  0  0  0  0
 19 15  2  0  0  0  0
 19 17  1  0  0  0  0
 20 15  1  0  0  0  0
 21 17  1  0  0  0  0
 22 19  1  0  0  0  0
 23 22  2  0  0  0  0
 24 22  1  0  0  0  0
 25 24  1  0  0  0  0
 26  6  1  0  0  0  0
 27 26  2  0  0  0  0
 28 26  1  0  0  0  0
 29 28  1  0  0  0  0
M  RAD  4   2   2   3   2  10   3  11   2
M  END
