Coordinates from ORCA-job 1g-Schema5-R8-G+-B3LYPG-6-31G_dp-scan-d49-09-n400
 OpenBabel08281819463D

 29 29  0  0  0  0  0  0  0  0999 V2000
   -3.5148   -0.9063   -1.1603 C   0  0  0  0  0  0  0  0  0  0  0  0
   -3.3057   -0.2441    0.0312 C   0  0  0  0  0  0  0  0  0  0  0  0
   -3.8042    0.8655    0.3248 C   0  0  0  0  0  0  0  0  0  0  0  0
   -4.6283    1.6901   -0.4141 C   0  0  0  0  0  0  0  0  0  0  0  0
   -4.8915    1.0974   -1.6673 C   0  0  0  0  0  0  0  0  0  0  0  0
   -4.3456   -0.1537   -2.0380 C   0  0  0  0  0  0  0  0  0  0  0  0
   -3.1532   -1.8894   -1.4375 H   0  0  0  0  0  0  0  0  0  0  0  0
   -5.5325    1.6192   -2.3709 H   0  0  0  0  0  0  0  0  0  0  0  0
   -5.0439    2.6463   -0.1206 H   0  0  0  0  0  0  0  0  0  0  0  0
   -1.1181   -1.0549   -3.1532 N   0  0  0  0  0  0  0  0  0  0  0  0
   -1.0038   -1.9426   -3.8172 N   0  0  0  0  0  0  0  0  0  0  0  0
   -0.8617   -3.0461   -4.6322 C   0  0  0  0  0  0  0  0  0  0  0  0
   -2.0214   -3.6042   -5.2051 C   0  0  0  0  0  0  0  0  0  0  0  0
    0.4438   -3.5425   -4.8342 C   0  0  0  0  0  0  0  0  0  0  0  0
   -1.8437   -4.7162   -6.0178 C   0  0  0  0  0  0  0  0  0  0  0  0
   -2.9910   -3.1616   -5.0046 H   0  0  0  0  0  0  0  0  0  0  0  0
    0.5755   -4.6526   -5.6496 C   0  0  0  0  0  0  0  0  0  0  0  0
    1.3001   -3.0699   -4.3666 H   0  0  0  0  0  0  0  0  0  0  0  0
   -0.5592   -5.2373   -6.2378 C   0  0  0  0  0  0  0  0  0  0  0  0
   -2.7011   -5.1866   -6.4837 H   0  0  0  0  0  0  0  0  0  0  0  0
    1.5484   -5.0884   -5.8482 H   0  0  0  0  0  0  0  0  0  0  0  0
   -0.3273   -6.4447   -7.1089 C   0  0  0  0  0  0  0  0  0  0  0  0
    0.7725   -6.9084   -7.3018 O   0  0  0  0  0  0  0  0  0  0  0  0
   -1.4686   -6.9225   -7.6261 O   0  0  0  0  0  0  0  0  0  0  0  0
   -1.2488   -7.6990   -8.1703 H   0  0  0  0  0  0  0  0  0  0  0  0
   -4.5892   -0.7238   -3.3839 C   0  0  0  0  0  0  0  0  0  0  0  0
   -3.9045   -1.6145   -3.8803 O   0  0  0  0  0  0  0  0  0  0  0  0
   -5.6225   -0.1732   -4.0339 O   0  0  0  0  0  0  0  0  0  0  0  0
   -5.6915   -0.6019   -4.9034 H   0  0  0  0  0  0  0  0  0  0  0  0
  1  2  2  0  0  0  0
  2  3  1  0  0  0  0
  4  9  1  0  0  0  0
  4  3  2  0  0  0  0
  5  4  1  0  0  0  0
  6  5  2  0  0  0  0
  6  1  1  0  0  0  0
  7  1  1  0  0  0  0
  8  5  1  0  0  0  0
 11 10  1  0  0  0  0
 12 11  1  0  0  0  0
 13 16  1  0  0  0  0
 13 12  2  0  0  0  0
 14 12  1  0  0  0  0
 14 18  1  0  0  0  0
 15 13  1  0  0  0  0
 17 14  2  0  0  0  0
 19 15  2  0  0  0  0
 19 17  1  0  0  0  0
 20 15  1  0  0  0  0
 21 17  1  0  0  0  0
 22 19  1  0  0  0  0
 23 22  2  0  0  0  0
 24 22  1  0  0  0  0
 25 24  1  0  0  0  0
 26  6  1  0  0  0  0
 27 26  2  0  0  0  0
 28 26  1  0  0  0  0
 29 28  1  0  0  0  0
M  RAD  4   2   2   3   2  10   3  11   2
M  END
