Coordinates from ORCA-job 1g-Schema5-R8-G+-B3LYPG-6-31G_dp-scan-d49-09-n400
 OpenBabel08281819463D

 29 31  0  0  1  0  0  0  0  0999 V2000
   -4.0601   -1.5937   -1.5767 C   0  0  0  0  0  0  0  0  0  0  0  0
   -3.0292   -2.4872   -2.1845 C   0  0  0  0  0  0  0  0  0  0  0  0
   -2.8993   -2.3312   -3.6954 C   0  0  0  0  0  0  0  0  0  0  0  0
   -3.6396   -1.4022   -4.3890 C   0  0  0  0  0  0  0  0  0  0  0  0
   -4.5487   -0.5775   -3.7042 C   0  0  0  0  0  0  0  0  0  0  0  0
   -4.7730   -0.6787   -2.3094 C   0  0  0  0  0  0  0  0  0  0  0  0
   -4.2093   -1.6804   -0.5032 H   0  0  0  0  0  0  0  0  0  0  0  0
   -5.1075    0.1686   -4.2612 H   0  0  0  0  0  0  0  0  0  0  0  0
   -3.5336   -1.2791   -5.4628 H   0  0  0  0  0  0  0  0  0  0  0  0
   -2.4576   -3.1068   -1.6098 N   0  0  0  0  0  0  0  0  0  0  0  0
   -1.4058   -3.9286   -1.9346 N   0  0  0  0  0  0  0  0  0  0  0  0
   -1.1047   -3.9710   -3.2207 C   0  0  0  0  0  0  0  0  0  0  0  0
   -1.9717   -3.3338   -4.2809 C   0  0  2  0  0  0  0  0  0  0  0  0
    0.0530   -4.6982   -3.6330 C   0  0  0  0  0  0  0  0  0  0  0  0
   -1.3449   -3.1621   -5.6253 C   0  0  0  0  0  0  0  0  0  0  0  0
   -2.6823   -4.1807   -4.4854 H   0  0  0  0  0  0  0  0  0  0  0  0
    0.4903   -4.6121   -4.9242 C   0  0  0  0  0  0  0  0  0  0  0  0
    0.5949   -5.2543   -2.8759 H   0  0  0  0  0  0  0  0  0  0  0  0
   -0.1925   -3.8133   -5.9192 C   0  0  0  0  0  0  0  0  0  0  0  0
   -1.8609   -2.5860   -6.3850 H   0  0  0  0  0  0  0  0  0  0  0  0
    1.3931   -5.1235   -5.2429 H   0  0  0  0  0  0  0  0  0  0  0  0
    0.4498   -3.7328   -7.2750 C   0  0  0  0  0  0  0  0  0  0  0  0
    1.4812   -4.3026   -7.5449 O   0  0  0  0  0  0  0  0  0  0  0  0
   -0.2499   -2.9659   -8.1295 O   0  0  0  0  0  0  0  0  0  0  0  0
    0.2276   -2.9593   -8.9773 H   0  0  0  0  0  0  0  0  0  0  0  0
   -5.7720    0.1930   -1.5944 C   0  0  0  0  0  0  0  0  0  0  0  0
   -5.9794    0.1187   -0.4076 O   0  0  0  0  0  0  0  0  0  0  0  0
   -6.3853    1.0405   -2.4378 O   0  0  0  0  0  0  0  0  0  0  0  0
   -7.0144    1.5744   -1.9216 H   0  0  0  0  0  0  0  0  0  0  0  0
  1  7  1  0  0  0  0
  2 10  1  0  0  0  0
  2  1  1  0  0  0  0
  3  2  2  0  0  0  0
  4  5  2  0  0  0  0
  4  3  1  0  0  0  0
  5  6  1  0  0  0  0
  6 26  1  0  0  0  0
  6  1  2  0  0  0  0
  8  5  1  0  0  0  0
  9  4  1  0  0  0  0
 11 10  1  0  0  0  0
 12 11  2  0  0  0  0
 13 16  1  6  0  0  0
 13  3  1  0  0  0  0
 13 12  1  0  0  0  0
 14 12  1  0  0  0  0
 14 18  1  0  0  0  0
 15 13  1  0  0  0  0
 17 14  2  0  0  0  0
 19 15  2  0  0  0  0
 19 17  1  0  0  0  0
 20 15  1  0  0  0  0
 21 17  1  0  0  0  0
 22 19  1  0  0  0  0
 23 22  2  0  0  0  0
 24 22  1  0  0  0  0
 25 24  1  0  0  0  0
 26 27  2  0  0  0  0
 28 29  1  0  0  0  0
 28 26  1  0  0  0  0
M  RAD  1  10   2
M  END
