Coordinates from ORCA-job 1g-Schema5-R8-G+-B3LYPG-6-31G_dp-scan-d49-09-n400
 OpenBabel08281819463D

 29 29  0  0  0  0  0  0  0  0999 V2000
   -3.4614   -1.2589   -1.9190 C   0  0  0  0  0  0  0  0  0  0  0  0
   -2.6096   -0.4675   -1.1546 C   0  0  0  0  0  0  0  0  0  0  0  0
   -2.8634    0.7573   -1.0172 C   0  0  0  0  0  0  0  0  0  0  0  0
   -3.8266    1.5987   -1.5126 C   0  0  0  0  0  0  0  0  0  0  0  0
   -4.6976    0.8397   -2.3295 C   0  0  0  0  0  0  0  0  0  0  0  0
   -4.5079   -0.5428   -2.5439 C   0  0  0  0  0  0  0  0  0  0  0  0
   -3.3712   -2.3305   -2.0667 H   0  0  0  0  0  0  0  0  0  0  0  0
   -5.5382    1.3392   -2.8006 H   0  0  0  0  0  0  0  0  0  0  0  0
   -3.9610    2.6562   -1.3229 H   0  0  0  0  0  0  0  0  0  0  0  0
   -0.4654   -1.5352   -1.8491 N   0  0  0  0  0  0  0  0  0  0  0  0
   -0.5276   -2.2295   -2.7283 N   0  0  0  0  0  0  0  0  0  0  0  0
   -0.5892   -3.0823   -3.8137 C   0  0  0  0  0  0  0  0  0  0  0  0
   -1.8204   -3.2833   -4.4698 C   0  0  0  0  0  0  0  0  0  0  0  0
    0.6164   -3.7095   -4.1972 C   0  0  0  0  0  0  0  0  0  0  0  0
   -1.8230   -4.1557   -5.5508 C   0  0  0  0  0  0  0  0  0  0  0  0
   -2.7381   -2.7927   -4.1569 H   0  0  0  0  0  0  0  0  0  0  0  0
    0.5718   -4.5699   -5.2799 C   0  0  0  0  0  0  0  0  0  0  0  0
    1.5365   -3.5181   -3.6564 H   0  0  0  0  0  0  0  0  0  0  0  0
   -0.6403   -4.7942   -5.9539 C   0  0  0  0  0  0  0  0  0  0  0  0
   -2.7488   -4.3438   -6.0813 H   0  0  0  0  0  0  0  0  0  0  0  0
    1.4628   -5.0832   -5.6239 H   0  0  0  0  0  0  0  0  0  0  0  0
   -0.6048   -5.7479   -7.1192 C   0  0  0  0  0  0  0  0  0  0  0  0
    0.4064   -6.3083   -7.4740 O   0  0  0  0  0  0  0  0  0  0  0  0
   -1.8075   -5.8895   -7.6954 O   0  0  0  0  0  0  0  0  0  0  0  0
   -1.7125   -6.5150   -8.4350 H   0  0  0  0  0  0  0  0  0  0  0  0
   -5.3430   -1.3143   -3.5097 C   0  0  0  0  0  0  0  0  0  0  0  0
   -4.9813   -2.3686   -4.0078 O   0  0  0  0  0  0  0  0  0  0  0  0
   -6.5131   -0.7285   -3.7964 O   0  0  0  0  0  0  0  0  0  0  0  0
   -6.9739   -1.2878   -4.4456 H   0  0  0  0  0  0  0  0  0  0  0  0
  1  2  2  0  0  0  0
  2  3  1  0  0  0  0
  4  9  1  0  0  0  0
  4  3  2  0  0  0  0
  5  4  1  0  0  0  0
  6  5  2  0  0  0  0
  6  1  1  0  0  0  0
  7  1  1  0  0  0  0
  8  5  1  0  0  0  0
 11 10  1  0  0  0  0
 12 11  1  0  0  0  0
 13 16  1  0  0  0  0
 13 12  2  0  0  0  0
 14 12  1  0  0  0  0
 14 18  1  0  0  0  0
 15 13  1  0  0  0  0
 17 14  2  0  0  0  0
 19 15  2  0  0  0  0
 19 17  1  0  0  0  0
 20 15  1  0  0  0  0
 21 17  1  0  0  0  0
 22 19  1  0  0  0  0
 23 22  2  0  0  0  0
 24 22  1  0  0  0  0
 25 24  1  0  0  0  0
 26  6  1  0  0  0  0
 27 26  2  0  0  0  0
 28 26  1  0  0  0  0
 29 28  1  0  0  0  0
M  RAD  4   2   2   3   2  10   3  11   2
M  END
