Coordinates from ORCA-job 1g-Schema5-R8-G+-B3LYPG-6-31G_dp-scan-d49-09-n400
 OpenBabel08281819463D

 29 30  0  0  1  0  0  0  0  0999 V2000
   -4.1507   -1.7813   -1.6743 C   0  0  0  0  0  0  0  0  0  0  0  0
   -3.4133   -2.7206   -2.3444 C   0  0  0  0  0  0  0  0  0  0  0  0
   -3.0619   -2.7198   -3.6664 C   0  0  0  0  0  0  0  0  0  0  0  0
   -3.4843   -1.6167   -4.4215 C   0  0  0  0  0  0  0  0  0  0  0  0
   -4.2286   -0.6063   -3.8040 C   0  0  0  0  0  0  0  0  0  0  0  0
   -4.5662   -0.6809   -2.4471 C   0  0  0  0  0  0  0  0  0  0  0  0
   -4.4039   -1.8429   -0.6216 H   0  0  0  0  0  0  0  0  0  0  0  0
   -4.5478    0.2528   -4.3829 H   0  0  0  0  0  0  0  0  0  0  0  0
   -3.2441   -1.5467   -5.4781 H   0  0  0  0  0  0  0  0  0  0  0  0
   -2.7514   -4.2939   -1.4381 N   0  0  0  0  0  0  0  0  0  0  0  0
   -1.7941   -4.6705   -2.0617 N   0  0  0  0  0  0  0  0  0  0  0  0
   -1.2779   -4.3029   -3.2694 C   0  0  0  0  0  0  0  0  0  0  0  0
   -2.2863   -3.9461   -4.3090 C   0  0  2  0  0  0  0  0  0  0  0  0
    0.0963   -4.2108   -3.4732 C   0  0  0  0  0  0  0  0  0  0  0  0
   -1.6936   -3.6788   -5.6420 C   0  0  0  0  0  0  0  0  0  0  0  0
   -3.0472   -4.7339   -4.4196 H   0  0  0  0  0  0  0  0  0  0  0  0
    0.5495   -3.8226   -4.7248 C   0  0  0  0  0  0  0  0  0  0  0  0
    0.7824   -4.4216   -2.6599 H   0  0  0  0  0  0  0  0  0  0  0  0
   -0.3438   -3.5889   -5.8181 C   0  0  0  0  0  0  0  0  0  0  0  0
   -2.3588   -3.5995   -6.4955 H   0  0  0  0  0  0  0  0  0  0  0  0
    1.6126   -3.7091   -4.9183 H   0  0  0  0  0  0  0  0  0  0  0  0
    0.2871   -3.2879   -7.1513 C   0  0  0  0  0  0  0  0  0  0  0  0
    1.4832   -3.1943   -7.2960 O   0  0  0  0  0  0  0  0  0  0  0  0
   -0.6275   -3.1352   -8.1201 O   0  0  0  0  0  0  0  0  0  0  0  0
   -0.1571   -2.9474   -8.9515 H   0  0  0  0  0  0  0  0  0  0  0  0
   -5.3568    0.3837   -1.7442 C   0  0  0  0  0  0  0  0  0  0  0  0
   -5.6453    0.3278   -0.5704 O   0  0  0  0  0  0  0  0  0  0  0  0
   -5.6990    1.3915   -2.5663 O   0  0  0  0  0  0  0  0  0  0  0  0
   -6.2034    2.0370   -2.0415 H   0  0  0  0  0  0  0  0  0  0  0  0
  1  7  1  0  0  0  0
  2  1  1  0  0  0  0
  3  2  2  0  0  0  0
  4  5  2  0  0  0  0
  4  3  1  0  0  0  0
  5  6  1  0  0  0  0
  6 26  1  0  0  0  0
  6  1  2  0  0  0  0
  8  5  1  0  0  0  0
  9  4  1  0  0  0  0
 11 10  2  0  0  0  0
 12 11  1  0  0  0  0
 13 16  1  6  0  0  0
 13  3  1  0  0  0  0
 13 12  1  0  0  0  0
 14 12  2  0  0  0  0
 14 18  1  0  0  0  0
 15 13  1  0  0  0  0
 17 14  1  0  0  0  0
 19 15  2  0  0  0  0
 19 17  1  0  0  0  0
 20 15  1  0  0  0  0
 21 17  1  0  0  0  0
 22 19  1  0  0  0  0
 23 22  2  0  0  0  0
 24 22  1  0  0  0  0
 25 24  1  0  0  0  0
 26 27  2  0  0  0  0
 28 29  1  0  0  0  0
 28 26  1  0  0  0  0
M  RAD  3   2   2  10   2  17   2
M  END
