Coordinates from ORCA-job 1g-Schema5-R8-G+-B3LYPG-6-31G_dp-scan-d49-09-n400
 OpenBabel08281819463D

 29 29  0  0  0  0  0  0  0  0999 V2000
   -3.5364   -1.3064   -1.7950 C   0  0  0  0  0  0  0  0  0  0  0  0
   -2.7740   -0.5422   -0.9204 C   0  0  0  0  0  0  0  0  0  0  0  0
   -2.9884    0.6865   -0.7753 C   0  0  0  0  0  0  0  0  0  0  0  0
   -3.8676    1.5592   -1.3706 C   0  0  0  0  0  0  0  0  0  0  0  0
   -4.6560    0.8418   -2.2998 C   0  0  0  0  0  0  0  0  0  0  0  0
   -4.4832   -0.5424   -2.5211 C   0  0  0  0  0  0  0  0  0  0  0  0
   -3.4593   -2.3782   -1.9495 H   0  0  0  0  0  0  0  0  0  0  0  0
   -5.4223    1.3732   -2.8552 H   0  0  0  0  0  0  0  0  0  0  0  0
   -3.9973    2.6170   -1.1774 H   0  0  0  0  0  0  0  0  0  0  0  0
   -0.4936   -1.4052   -1.9946 N   0  0  0  0  0  0  0  0  0  0  0  0
   -0.5381   -2.1291   -2.8472 N   0  0  0  0  0  0  0  0  0  0  0  0
   -0.5929   -3.0252   -3.8958 C   0  0  0  0  0  0  0  0  0  0  0  0
   -1.8417   -3.3073   -4.4850 C   0  0  0  0  0  0  0  0  0  0  0  0
    0.6258   -3.6075   -4.3076 C   0  0  0  0  0  0  0  0  0  0  0  0
   -1.8487   -4.2218   -5.5307 C   0  0  0  0  0  0  0  0  0  0  0  0
   -2.7666   -2.8424   -4.1497 H   0  0  0  0  0  0  0  0  0  0  0  0
    0.5742   -4.5122   -5.3528 C   0  0  0  0  0  0  0  0  0  0  0  0
    1.5581   -3.3511   -3.8173 H   0  0  0  0  0  0  0  0  0  0  0  0
   -0.6548   -4.8202   -5.9613 C   0  0  0  0  0  0  0  0  0  0  0  0
   -2.7861   -4.4725   -6.0124 H   0  0  0  0  0  0  0  0  0  0  0  0
    1.4727   -4.9971   -5.7180 H   0  0  0  0  0  0  0  0  0  0  0  0
   -0.6235   -5.8182   -7.0893 C   0  0  0  0  0  0  0  0  0  0  0  0
    0.3985   -6.3396   -7.4712 O   0  0  0  0  0  0  0  0  0  0  0  0
   -1.8427   -6.0445   -7.5993 O   0  0  0  0  0  0  0  0  0  0  0  0
   -1.7505   -6.6942   -8.3182 H   0  0  0  0  0  0  0  0  0  0  0  0
   -5.2402   -1.2633   -3.5835 C   0  0  0  0  0  0  0  0  0  0  0  0
   -4.8674   -2.3189   -4.0739 O   0  0  0  0  0  0  0  0  0  0  0  0
   -6.3597   -0.6363   -3.9678 O   0  0  0  0  0  0  0  0  0  0  0  0
   -6.7703   -1.1677   -4.6717 H   0  0  0  0  0  0  0  0  0  0  0  0
  1  2  2  0  0  0  0
  2  3  1  0  0  0  0
  4  9  1  0  0  0  0
  4  3  2  0  0  0  0
  5  4  1  0  0  0  0
  6  5  2  0  0  0  0
  6  1  1  0  0  0  0
  7  1  1  0  0  0  0
  8  5  1  0  0  0  0
 11 10  1  0  0  0  0
 12 11  1  0  0  0  0
 13 16  1  0  0  0  0
 13 12  2  0  0  0  0
 14 12  1  0  0  0  0
 14 18  1  0  0  0  0
 15 13  1  0  0  0  0
 17 14  2  0  0  0  0
 19 15  2  0  0  0  0
 19 17  1  0  0  0  0
 20 15  1  0  0  0  0
 21 17  1  0  0  0  0
 22 19  1  0  0  0  0
 23 22  2  0  0  0  0
 24 22  1  0  0  0  0
 25 24  1  0  0  0  0
 26  6  1  0  0  0  0
 27 26  2  0  0  0  0
 28 26  1  0  0  0  0
 29 28  1  0  0  0  0
M  RAD  4   2   2   3   2  10   3  11   2
M  END
