Coordinates from ORCA-job 1g-Schema5-R8-G+-B3LYPG-6-31G_dp-scan-d49-09-n400
 OpenBabel08281819463D

 29 29  0  0  0  0  0  0  0  0999 V2000
   -3.4746   -1.2707   -1.8974 C   0  0  0  0  0  0  0  0  0  0  0  0
   -2.6325   -0.4817   -1.1204 C   0  0  0  0  0  0  0  0  0  0  0  0
   -2.8772    0.7450   -0.9879 C   0  0  0  0  0  0  0  0  0  0  0  0
   -3.8257    1.5913   -1.5043 C   0  0  0  0  0  0  0  0  0  0  0  0
   -4.6875    0.8368   -2.3346 C   0  0  0  0  0  0  0  0  0  0  0  0
   -4.5044   -0.5478   -2.5425 C   0  0  0  0  0  0  0  0  0  0  0  0
   -3.3888   -2.3433   -2.0411 H   0  0  0  0  0  0  0  0  0  0  0  0
   -5.5163    1.3409   -2.8215 H   0  0  0  0  0  0  0  0  0  0  0  0
   -3.9564    2.6503   -1.3196 H   0  0  0  0  0  0  0  0  0  0  0  0
   -0.4658   -1.5194   -1.8612 N   0  0  0  0  0  0  0  0  0  0  0  0
   -0.5250   -2.2162   -2.7383 N   0  0  0  0  0  0  0  0  0  0  0  0
   -0.5877   -3.0733   -3.8199 C   0  0  0  0  0  0  0  0  0  0  0  0
   -1.8227   -3.2830   -4.4663 C   0  0  0  0  0  0  0  0  0  0  0  0
    0.6188   -3.6946   -4.2097 C   0  0  0  0  0  0  0  0  0  0  0  0
   -1.8281   -4.1592   -5.5442 C   0  0  0  0  0  0  0  0  0  0  0  0
   -2.7407   -2.7959   -4.1484 H   0  0  0  0  0  0  0  0  0  0  0  0
    0.5711   -4.5593   -5.2888 C   0  0  0  0  0  0  0  0  0  0  0  0
    1.5417   -3.4961   -3.6762 H   0  0  0  0  0  0  0  0  0  0  0  0
   -0.6448   -4.7926   -5.9533 C   0  0  0  0  0  0  0  0  0  0  0  0
   -2.7565   -4.3541   -6.0675 H   0  0  0  0  0  0  0  0  0  0  0  0
    1.4623   -5.0689   -5.6375 H   0  0  0  0  0  0  0  0  0  0  0  0
   -0.6122   -5.7504   -7.1153 C   0  0  0  0  0  0  0  0  0  0  0  0
    0.3998   -6.3055   -7.4760 O   0  0  0  0  0  0  0  0  0  0  0  0
   -1.8183   -5.9011   -7.6820 O   0  0  0  0  0  0  0  0  0  0  0  0
   -1.7251   -6.5286   -8.4202 H   0  0  0  0  0  0  0  0  0  0  0  0
   -5.3294   -1.3145   -3.5206 C   0  0  0  0  0  0  0  0  0  0  0  0
   -4.9666   -2.3711   -4.0136 O   0  0  0  0  0  0  0  0  0  0  0  0
   -6.4923   -0.7229   -3.8238 O   0  0  0  0  0  0  0  0  0  0  0  0
   -6.9468   -1.2800   -4.4794 H   0  0  0  0  0  0  0  0  0  0  0  0
  1  2  2  0  0  0  0
  2  3  1  0  0  0  0
  4  9  1  0  0  0  0
  4  3  2  0  0  0  0
  5  4  1  0  0  0  0
  6  5  2  0  0  0  0
  6  1  1  0  0  0  0
  7  1  1  0  0  0  0
  8  5  1  0  0  0  0
 11 10  1  0  0  0  0
 12 11  1  0  0  0  0
 13 16  1  0  0  0  0
 13 12  2  0  0  0  0
 14 12  1  0  0  0  0
 14 18  1  0  0  0  0
 15 13  1  0  0  0  0
 17 14  2  0  0  0  0
 19 15  2  0  0  0  0
 19 17  1  0  0  0  0
 20 15  1  0  0  0  0
 21 17  1  0  0  0  0
 22 19  1  0  0  0  0
 23 22  2  0  0  0  0
 24 22  1  0  0  0  0
 25 24  1  0  0  0  0
 26  6  1  0  0  0  0
 27 26  2  0  0  0  0
 28 26  1  0  0  0  0
 29 28  1  0  0  0  0
M  RAD  4   2   2   3   2  10   3  11   2
M  END
