Coordinates from ORCA-job 1g-Schema5-R8-G+-B3LYPG-6-31G_dp-scan-d49-09-n400
 OpenBabel08281819463D

 29 31  0  0  1  0  0  0  0  0999 V2000
   -4.0653   -1.5840   -1.5511 C   0  0  0  0  0  0  0  0  0  0  0  0
   -3.0018   -2.5047   -2.1426 C   0  0  0  0  0  0  0  0  0  0  0  0
   -2.9019   -2.3331   -3.7099 C   0  0  0  0  0  0  0  0  0  0  0  0
   -3.6465   -1.4052   -4.3952 C   0  0  0  0  0  0  0  0  0  0  0  0
   -4.5508   -0.5874   -3.6950 C   0  0  0  0  0  0  0  0  0  0  0  0
   -4.7752   -0.6816   -2.2949 C   0  0  0  0  0  0  0  0  0  0  0  0
   -4.2225   -1.6546   -0.4763 H   0  0  0  0  0  0  0  0  0  0  0  0
   -5.1165    0.1578   -4.2471 H   0  0  0  0  0  0  0  0  0  0  0  0
   -3.5558   -1.2737   -5.4704 H   0  0  0  0  0  0  0  0  0  0  0  0
   -2.4463   -3.0786   -1.6467 N   0  0  0  0  0  0  0  0  0  0  0  0
   -1.3798   -3.9217   -1.9342 N   0  0  0  0  0  0  0  0  0  0  0  0
   -1.0983   -3.9715   -3.2167 C   0  0  0  0  0  0  0  0  0  0  0  0
   -1.9737   -3.3361   -4.2847 C   0  0  2  0  0  0  0  0  0  0  0  0
    0.0543   -4.7116   -3.6408 C   0  0  0  0  0  0  0  0  0  0  0  0
   -1.3399   -3.1628   -5.6288 C   0  0  0  0  0  0  0  0  0  0  0  0
   -2.6885   -4.1804   -4.4823 H   0  0  0  0  0  0  0  0  0  0  0  0
    0.4865   -4.6279   -4.9295 C   0  0  0  0  0  0  0  0  0  0  0  0
    0.5940   -5.2738   -2.8866 H   0  0  0  0  0  0  0  0  0  0  0  0
   -0.1915   -3.8167   -5.9225 C   0  0  0  0  0  0  0  0  0  0  0  0
   -1.8506   -2.5772   -6.3847 H   0  0  0  0  0  0  0  0  0  0  0  0
    1.3832   -5.1470   -5.2523 H   0  0  0  0  0  0  0  0  0  0  0  0
    0.4534   -3.7317   -7.2759 C   0  0  0  0  0  0  0  0  0  0  0  0
    1.4784   -4.3111   -7.5506 O   0  0  0  0  0  0  0  0  0  0  0  0
   -0.2350   -2.9491   -8.1263 O   0  0  0  0  0  0  0  0  0  0  0  0
    0.2453   -2.9432   -8.9723 H   0  0  0  0  0  0  0  0  0  0  0  0
   -5.7803    0.1973   -1.5938 C   0  0  0  0  0  0  0  0  0  0  0  0
   -5.9935    0.1354   -0.4076 O   0  0  0  0  0  0  0  0  0  0  0  0
   -6.3903    1.0348   -2.4496 O   0  0  0  0  0  0  0  0  0  0  0  0
   -7.0230    1.5738   -1.9430 H   0  0  0  0  0  0  0  0  0  0  0  0
  1  7  1  0  0  0  0
  2 10  1  0  0  0  0
  2  1  2  0  0  0  0
  3  2  1  0  0  0  0
  4  3  2  0  0  0  0
  4  5  1  0  0  0  0
  5  6  2  0  0  0  0
  6 26  1  0  0  0  0
  6  1  1  0  0  0  0
  8  5  1  0  0  0  0
  9  4  1  0  0  0  0
 11 10  1  0  0  0  0
 12 11  2  0  0  0  0
 13 16  1  6  0  0  0
 13  3  1  0  0  0  0
 13 12  1  0  0  0  0
 14 12  1  0  0  0  0
 14 18  1  0  0  0  0
 15 13  1  0  0  0  0
 17 14  2  0  0  0  0
 19 15  2  0  0  0  0
 19 17  1  0  0  0  0
 20 15  1  0  0  0  0
 21 17  1  0  0  0  0
 22 19  1  0  0  0  0
 23 22  2  0  0  0  0
 24 22  1  0  0  0  0
 25 24  1  0  0  0  0
 26 27  2  0  0  0  0
 28 29  1  0  0  0  0
 28 26  1  0  0  0  0
M  RAD  1  10   2
M  END
