Coordinates from ORCA-job 1g-Schema5-R8-G+-B3LYPG-6-31G_dp-scan-d49-09-n400
 OpenBabel08281819463D

 29 29  0  0  0  0  0  0  0  0999 V2000
   -4.0346   -1.3642   -2.0609 C   0  0  0  0  0  0  0  0  0  0  0  0
   -2.7636   -0.8933   -2.4249 C   0  0  0  0  0  0  0  0  0  0  0  0
   -2.6957    0.3054   -2.8363 C   0  0  0  0  0  0  0  0  0  0  0  0
   -3.5591    1.3316   -3.0805 C   0  0  0  0  0  0  0  0  0  0  0  0
   -4.8506    0.8687   -2.7257 C   0  0  0  0  0  0  0  0  0  0  0  0
   -5.0806   -0.4339   -2.2378 C   0  0  0  0  0  0  0  0  0  0  0  0
   -4.2445   -2.3547   -1.6710 H   0  0  0  0  0  0  0  0  0  0  0  0
   -5.6855    1.5545   -2.8308 H   0  0  0  0  0  0  0  0  0  0  0  0
   -3.3560    2.3275   -3.4514 H   0  0  0  0  0  0  0  0  0  0  0  0
   -1.1586   -2.1050   -1.7761 N   0  0  0  0  0  0  0  0  0  0  0  0
   -0.7128   -2.8339   -2.5306 N   0  0  0  0  0  0  0  0  0  0  0  0
   -0.5057   -3.4822   -3.7381 C   0  0  0  0  0  0  0  0  0  0  0  0
   -1.2666   -3.0906   -4.8565 C   0  0  0  0  0  0  0  0  0  0  0  0
    0.4602   -4.5023   -3.7805 C   0  0  0  0  0  0  0  0  0  0  0  0
   -1.0390   -3.7536   -6.0537 C   0  0  0  0  0  0  0  0  0  0  0  0
   -2.0014   -2.2977   -4.7722 H   0  0  0  0  0  0  0  0  0  0  0  0
    0.6653   -5.1482   -4.9906 C   0  0  0  0  0  0  0  0  0  0  0  0
    1.0188   -4.7661   -2.8894 H   0  0  0  0  0  0  0  0  0  0  0  0
   -0.0779   -4.7766   -6.1209 C   0  0  0  0  0  0  0  0  0  0  0  0
   -1.6010   -3.4853   -6.9404 H   0  0  0  0  0  0  0  0  0  0  0  0
    1.3958   -5.9439   -5.0862 H   0  0  0  0  0  0  0  0  0  0  0  0
    0.2029   -5.5201   -7.3993 C   0  0  0  0  0  0  0  0  0  0  0  0
    1.0232   -6.4048   -7.4775 O   0  0  0  0  0  0  0  0  0  0  0  0
   -0.5548   -5.0819   -8.4180 O   0  0  0  0  0  0  0  0  0  0  0  0
   -0.3210   -5.6021   -9.2064 H   0  0  0  0  0  0  0  0  0  0  0  0
   -6.4575   -0.9054   -1.8727 C   0  0  0  0  0  0  0  0  0  0  0  0
   -6.6949   -2.0251   -1.4769 O   0  0  0  0  0  0  0  0  0  0  0  0
   -7.3912    0.0505   -2.0351 O   0  0  0  0  0  0  0  0  0  0  0  0
   -8.2453   -0.3329   -1.7709 H   0  0  0  0  0  0  0  0  0  0  0  0
  1  7  1  0  0  0  0
  2  1  2  0  0  0  0
  3  2  1  0  0  0  0
  4  3  2  0  0  0  0
  4  5  1  0  0  0  0
  5  6  2  0  0  0  0
  6  1  1  0  0  0  0
  6 26  1  0  0  0  0
  8  5  1  0  0  0  0
  9  4  1  0  0  0  0
 11 10  1  0  0  0  0
 12 11  1  0  0  0  0
 13 16  1  0  0  0  0
 13 12  2  0  0  0  0
 14 12  1  0  0  0  0
 14 18  1  0  0  0  0
 15 13  1  0  0  0  0
 17 14  2  0  0  0  0
 19 15  2  0  0  0  0
 19 17  1  0  0  0  0
 20 15  1  0  0  0  0
 21 17  1  0  0  0  0
 22 19  1  0  0  0  0
 23 22  2  0  0  0  0
 24 22  1  0  0  0  0
 25 24  1  0  0  0  0
 26 27  2  0  0  0  0
 28 26  1  0  0  0  0
 28 29  1  0  0  0  0
M  RAD  4   2   2   3   2  10   3  11   2
M  END
