Coordinates from ORCA-job 1g-Schema5-R8-G+-B3LYPG-6-31G_dp-scan-d49-09-n400
 OpenBabel08281819463D

 29 29  0  0  0  0  0  0  0  0999 V2000
   -3.6346   -1.2343   -1.4184 C   0  0  0  0  0  0  0  0  0  0  0  0
   -3.1724   -0.6798   -0.2413 C   0  0  0  0  0  0  0  0  0  0  0  0
   -3.4005    0.4950    0.1245 C   0  0  0  0  0  0  0  0  0  0  0  0
   -4.1040    1.5017   -0.5048 C   0  0  0  0  0  0  0  0  0  0  0  0
   -4.6054    1.0294   -1.7378 C   0  0  0  0  0  0  0  0  0  0  0  0
   -4.3695   -0.2883   -2.1902 C   0  0  0  0  0  0  0  0  0  0  0  0
   -3.5165   -2.2585   -1.7548 H   0  0  0  0  0  0  0  0  0  0  0  0
   -5.1916    1.6996   -2.3584 H   0  0  0  0  0  0  0  0  0  0  0  0
   -4.2868    2.5073   -0.1458 H   0  0  0  0  0  0  0  0  0  0  0  0
   -1.3652   -0.9140   -3.1309 N   0  0  0  0  0  0  0  0  0  0  0  0
   -1.2244   -1.8063   -3.7874 N   0  0  0  0  0  0  0  0  0  0  0  0
   -1.0118   -2.9208   -4.5731 C   0  0  0  0  0  0  0  0  0  0  0  0
   -2.1270   -3.5612   -5.1467 C   0  0  0  0  0  0  0  0  0  0  0  0
    0.3234   -3.3481   -4.7407 C   0  0  0  0  0  0  0  0  0  0  0  0
   -1.8734   -4.6867   -5.9203 C   0  0  0  0  0  0  0  0  0  0  0  0
   -3.1240   -3.1675   -4.9811 H   0  0  0  0  0  0  0  0  0  0  0  0
    0.5312   -4.4743   -5.5169 C   0  0  0  0  0  0  0  0  0  0  0  0
    1.1435   -2.8132   -4.2754 H   0  0  0  0  0  0  0  0  0  0  0  0
   -0.5585   -5.1416   -6.1027 C   0  0  0  0  0  0  0  0  0  0  0  0
   -2.6955   -5.2179   -6.3847 H   0  0  0  0  0  0  0  0  0  0  0  0
    1.5305   -4.8604   -5.6859 H   0  0  0  0  0  0  0  0  0  0  0  0
   -0.2439   -6.3617   -6.9284 C   0  0  0  0  0  0  0  0  0  0  0  0
    0.8841   -6.7663   -7.0910 O   0  0  0  0  0  0  0  0  0  0  0  0
   -1.3473   -6.9248   -7.4418 O   0  0  0  0  0  0  0  0  0  0  0  0
   -1.0737   -7.7055   -7.9547 H   0  0  0  0  0  0  0  0  0  0  0  0
   -4.8262   -0.7331   -3.5313 C   0  0  0  0  0  0  0  0  0  0  0  0
   -4.3218   -1.6707   -4.1380 O   0  0  0  0  0  0  0  0  0  0  0  0
   -5.8282   -0.0038   -4.0372 O   0  0  0  0  0  0  0  0  0  0  0  0
   -6.0423   -0.3601   -4.9164 H   0  0  0  0  0  0  0  0  0  0  0  0
  1  2  2  0  0  0  0
  2  3  1  0  0  0  0
  4  9  1  0  0  0  0
  4  3  2  0  0  0  0
  5  4  1  0  0  0  0
  6  5  2  0  0  0  0
  6  1  1  0  0  0  0
  7  1  1  0  0  0  0
  8  5  1  0  0  0  0
 11 10  1  0  0  0  0
 12 11  1  0  0  0  0
 13 16  1  0  0  0  0
 13 12  2  0  0  0  0
 14 12  1  0  0  0  0
 14 18  1  0  0  0  0
 15 13  1  0  0  0  0
 17 14  2  0  0  0  0
 19 15  2  0  0  0  0
 19 17  1  0  0  0  0
 20 15  1  0  0  0  0
 21 17  1  0  0  0  0
 22 19  1  0  0  0  0
 23 22  2  0  0  0  0
 24 22  1  0  0  0  0
 25 24  1  0  0  0  0
 26  6  1  0  0  0  0
 27 26  2  0  0  0  0
 28 26  1  0  0  0  0
 29 28  1  0  0  0  0
M  RAD  4   2   2   3   2  10   3  11   2
M  END
