Coordinates from ORCA-job 1g-Schema5-R8-G+-B3LYPG-6-31G_dp-scan-d49-09-n400
 OpenBabel08281819463D

 29 31  0  0  1  0  0  0  0  0999 V2000
   -4.0525   -1.6073   -1.6067 C   0  0  0  0  0  0  0  0  0  0  0  0
   -3.0833   -2.4678   -2.2421 C   0  0  0  0  0  0  0  0  0  0  0  0
   -2.9103   -2.3348   -3.6859 C   0  0  0  0  0  0  0  0  0  0  0  0
   -3.6420   -1.4018   -4.3942 C   0  0  0  0  0  0  0  0  0  0  0  0
   -4.5472   -0.5655   -3.7219 C   0  0  0  0  0  0  0  0  0  0  0  0
   -4.7629   -0.6721   -2.3327 C   0  0  0  0  0  0  0  0  0  0  0  0
   -4.1991   -1.7073   -0.5356 H   0  0  0  0  0  0  0  0  0  0  0  0
   -5.0974    0.1845   -4.2805 H   0  0  0  0  0  0  0  0  0  0  0  0
   -3.5212   -1.2871   -5.4666 H   0  0  0  0  0  0  0  0  0  0  0  0
   -2.4697   -3.2120   -1.5439 N   0  0  0  0  0  0  0  0  0  0  0  0
   -1.4572   -3.9868   -1.9265 N   0  0  0  0  0  0  0  0  0  0  0  0
   -1.1211   -3.9867   -3.2297 C   0  0  0  0  0  0  0  0  0  0  0  0
   -1.9790   -3.3464   -4.2755 C   0  0  2  0  0  0  0  0  0  0  0  0
    0.0555   -4.6669   -3.6177 C   0  0  0  0  0  0  0  0  0  0  0  0
   -1.3616   -3.1765   -5.6193 C   0  0  0  0  0  0  0  0  0  0  0  0
   -2.6816   -4.1975   -4.4967 H   0  0  0  0  0  0  0  0  0  0  0  0
    0.5081   -4.5658   -4.9127 C   0  0  0  0  0  0  0  0  0  0  0  0
    0.6068   -5.2069   -2.8555 H   0  0  0  0  0  0  0  0  0  0  0  0
   -0.1899   -3.8025   -5.9129 C   0  0  0  0  0  0  0  0  0  0  0  0
   -1.8965   -2.6275   -6.3861 H   0  0  0  0  0  0  0  0  0  0  0  0
    1.4312   -5.0487   -5.2193 H   0  0  0  0  0  0  0  0  0  0  0  0
    0.4495   -3.7213   -7.2716 C   0  0  0  0  0  0  0  0  0  0  0  0
    1.5022   -4.2557   -7.5288 O   0  0  0  0  0  0  0  0  0  0  0  0
   -0.2811   -2.9971   -8.1353 O   0  0  0  0  0  0  0  0  0  0  0  0
    0.1920   -2.9822   -8.9858 H   0  0  0  0  0  0  0  0  0  0  0  0
   -5.7446    0.1998   -1.5995 C   0  0  0  0  0  0  0  0  0  0  0  0
   -5.9410    0.1160   -0.4107 O   0  0  0  0  0  0  0  0  0  0  0  0
   -6.3605    1.0633   -2.4251 O   0  0  0  0  0  0  0  0  0  0  0  0
   -6.9774    1.5949   -1.8925 H   0  0  0  0  0  0  0  0  0  0  0  0
  1  7  1  0  0  0  0
  2  1  1  0  0  0  0
  2 10  1  0  0  0  0
  3  2  2  0  0  0  0
  4  5  2  0  0  0  0
  4  3  1  0  0  0  0
  5  6  1  0  0  0  0
  6  1  2  0  0  0  0
  6 26  1  0  0  0  0
  8  5  1  0  0  0  0
  9  4  1  0  0  0  0
 11 10  1  0  0  0  0
 12 11  2  0  0  0  0
 13 16  1  6  0  0  0
 13  3  1  0  0  0  0
 13 12  1  0  0  0  0
 14 12  1  0  0  0  0
 14 18  1  0  0  0  0
 15 13  1  0  0  0  0
 17 14  2  0  0  0  0
 19 15  2  0  0  0  0
 19 17  1  0  0  0  0
 20 15  1  0  0  0  0
 21 17  1  0  0  0  0
 22 19  1  0  0  0  0
 23 22  2  0  0  0  0
 24 22  1  0  0  0  0
 25 24  1  0  0  0  0
 26 27  2  0  0  0  0
 28 29  1  0  0  0  0
 28 26  1  0  0  0  0
M  RAD  1  10   2
M  END
