Coordinates from ORCA-job 1g-Schema5-R8-G+-B3LYPG-6-31G_dp-scan-d49-09-n400
 OpenBabel08281819463D

 29 29  0  0  0  0  0  0  0  0999 V2000
   -3.5675   -1.3081   -1.7436 C   0  0  0  0  0  0  0  0  0  0  0  0
   -2.8904   -0.5904   -0.7684 C   0  0  0  0  0  0  0  0  0  0  0  0
   -3.1177    0.6240   -0.5535 C   0  0  0  0  0  0  0  0  0  0  0  0
   -3.9699    1.5216   -1.1543 C   0  0  0  0  0  0  0  0  0  0  0  0
   -4.6816    0.8603   -2.1815 C   0  0  0  0  0  0  0  0  0  0  0  0
   -4.4762   -0.5047   -2.4805 C   0  0  0  0  0  0  0  0  0  0  0  0
   -3.4679   -2.3674   -1.9583 H   0  0  0  0  0  0  0  0  0  0  0  0
   -5.4142    1.4199   -2.7544 H   0  0  0  0  0  0  0  0  0  0  0  0
   -4.1277    2.5637   -0.9051 H   0  0  0  0  0  0  0  0  0  0  0  0
   -0.5382   -1.2331   -2.2338 N   0  0  0  0  0  0  0  0  0  0  0  0
   -0.5544   -2.0069   -3.0403 N   0  0  0  0  0  0  0  0  0  0  0  0
   -0.5910   -2.9683   -4.0290 C   0  0  0  0  0  0  0  0  0  0  0  0
   -1.8396   -3.2984   -4.5929 C   0  0  0  0  0  0  0  0  0  0  0  0
    0.6340   -3.5601   -4.4067 C   0  0  0  0  0  0  0  0  0  0  0  0
   -1.8400   -4.2766   -5.5792 C   0  0  0  0  0  0  0  0  0  0  0  0
   -2.7646   -2.8168   -4.2784 H   0  0  0  0  0  0  0  0  0  0  0  0
    0.5877   -4.5291   -5.3926 C   0  0  0  0  0  0  0  0  0  0  0  0
    1.5650   -3.2632   -3.9372 H   0  0  0  0  0  0  0  0  0  0  0  0
   -0.6406   -4.8875   -5.9756 C   0  0  0  0  0  0  0  0  0  0  0  0
   -2.7754   -4.5669   -6.0421 H   0  0  0  0  0  0  0  0  0  0  0  0
    1.4897   -5.0265   -5.7312 H   0  0  0  0  0  0  0  0  0  0  0  0
   -0.6016   -5.9531   -7.0400 C   0  0  0  0  0  0  0  0  0  0  0  0
    0.4253   -6.4852   -7.3930 O   0  0  0  0  0  0  0  0  0  0  0  0
   -1.8206   -6.2281   -7.5256 O   0  0  0  0  0  0  0  0  0  0  0  0
   -1.7243   -6.9216   -8.2018 H   0  0  0  0  0  0  0  0  0  0  0  0
   -5.1667   -1.1606   -3.6254 C   0  0  0  0  0  0  0  0  0  0  0  0
   -4.7682   -2.1879   -4.1564 O   0  0  0  0  0  0  0  0  0  0  0  0
   -6.2638   -0.5119   -4.0377 O   0  0  0  0  0  0  0  0  0  0  0  0
   -6.6314   -1.0029   -4.7927 H   0  0  0  0  0  0  0  0  0  0  0  0
  1  2  2  0  0  0  0
  2  3  1  0  0  0  0
  4  9  1  0  0  0  0
  4  3  2  0  0  0  0
  5  4  1  0  0  0  0
  6  5  2  0  0  0  0
  6  1  1  0  0  0  0
  7  1  1  0  0  0  0
  8  5  1  0  0  0  0
 11 10  1  0  0  0  0
 12 11  1  0  0  0  0
 13 16  1  0  0  0  0
 13 12  2  0  0  0  0
 14 12  1  0  0  0  0
 14 18  1  0  0  0  0
 15 13  1  0  0  0  0
 17 14  2  0  0  0  0
 19 15  2  0  0  0  0
 19 17  1  0  0  0  0
 20 15  1  0  0  0  0
 21 17  1  0  0  0  0
 22 19  1  0  0  0  0
 23 22  2  0  0  0  0
 24 22  1  0  0  0  0
 25 24  1  0  0  0  0
 26  6  1  0  0  0  0
 27 26  2  0  0  0  0
 28 26  1  0  0  0  0
 29 28  1  0  0  0  0
M  RAD  4   2   2   3   2  10   3  11   2
M  END
