Coordinates from ORCA-job 1g-Schema5-R8-G+-B3LYPG-6-31G_dp-scan-d49-09-n400
 OpenBabel08281819463D

 29 31  0  0  1  0  0  0  0  0999 V2000
   -4.0769   -1.6924   -1.6483 C   0  0  0  0  0  0  0  0  0  0  0  0
   -3.2574   -2.5935   -2.3179 C   0  0  0  0  0  0  0  0  0  0  0  0
   -3.0109   -2.5252   -3.6898 C   0  0  0  0  0  0  0  0  0  0  0  0
   -3.6215   -1.5140   -4.4249 C   0  0  0  0  0  0  0  0  0  0  0  0
   -4.4283   -0.5749   -3.7667 C   0  0  0  0  0  0  0  0  0  0  0  0
   -4.6620   -0.6611   -2.3873 C   0  0  0  0  0  0  0  0  0  0  0  0
   -4.2636   -1.7867   -0.5837 H   0  0  0  0  0  0  0  0  0  0  0  0
   -4.8752    0.2364   -4.3301 H   0  0  0  0  0  0  0  0  0  0  0  0
   -3.4677   -1.4242   -5.4952 H   0  0  0  0  0  0  0  0  0  0  0  0
   -2.6784   -3.7693   -1.4874 N   0  0  0  0  0  0  0  0  0  0  0  0
   -1.6922   -4.3653   -1.9819 N   0  0  0  0  0  0  0  0  0  0  0  0
   -1.2255   -4.1544   -3.2611 C   0  0  0  0  0  0  0  0  0  0  0  0
   -2.1604   -3.6586   -4.3024 C   0  0  2  0  0  0  0  0  0  0  0  0
    0.1108   -4.4316   -3.5368 C   0  0  0  0  0  0  0  0  0  0  0  0
   -1.5528   -3.4437   -5.6402 C   0  0  0  0  0  0  0  0  0  0  0  0
   -2.9050   -4.4670   -4.4869 H   0  0  0  0  0  0  0  0  0  0  0  0
    0.6002   -4.1825   -4.8130 C   0  0  0  0  0  0  0  0  0  0  0  0
    0.7500   -4.8052   -2.7438 H   0  0  0  0  0  0  0  0  0  0  0  0
   -0.2332   -3.7022   -5.8708 C   0  0  0  0  0  0  0  0  0  0  0  0
   -2.1986   -3.1439   -6.4589 H   0  0  0  0  0  0  0  0  0  0  0  0
    1.6469   -4.3562   -5.0485 H   0  0  0  0  0  0  0  0  0  0  0  0
    0.4172   -3.5113   -7.2150 C   0  0  0  0  0  0  0  0  0  0  0  0
    1.5946   -3.7100   -7.3976 O   0  0  0  0  0  0  0  0  0  0  0  0
   -0.4577   -3.1004   -8.1441 O   0  0  0  0  0  0  0  0  0  0  0  0
    0.0218   -2.9932   -8.9846 H   0  0  0  0  0  0  0  0  0  0  0  0
   -5.5332    0.3133   -1.6509 C   0  0  0  0  0  0  0  0  0  0  0  0
   -5.7465    0.2437   -0.4622 O   0  0  0  0  0  0  0  0  0  0  0  0
   -6.0393    1.2585   -2.4633 O   0  0  0  0  0  0  0  0  0  0  0  0
   -6.5873    1.8492   -1.9181 H   0  0  0  0  0  0  0  0  0  0  0  0
  1  7  1  0  0  0  0
  2  1  1  0  0  0  0
  2 10  1  0  0  0  0
  3  2  2  0  0  0  0
  4  5  2  0  0  0  0
  4  3  1  0  0  0  0
  5  6  1  0  0  0  0
  6 26  1  0  0  0  0
  6  1  2  0  0  0  0
  8  5  1  0  0  0  0
  9  4  1  0  0  0  0
 11 10  2  0  0  0  0
 12 11  1  0  0  0  0
 13 16  1  6  0  0  0
 13  3  1  0  0  0  0
 13 12  1  0  0  0  0
 14 12  2  0  0  0  0
 14 18  1  0  0  0  0
 15 13  1  0  0  0  0
 17 14  1  0  0  0  0
 19 15  2  0  0  0  0
 19 17  1  0  0  0  0
 20 15  1  0  0  0  0
 21 17  1  0  0  0  0
 22 19  1  0  0  0  0
 23 22  2  0  0  0  0
 24 22  1  0  0  0  0
 25 24  1  0  0  0  0
 26 27  2  0  0  0  0
 28 29  1  0  0  0  0
 28 26  1  0  0  0  0
M  RAD  1  17   2
M  END
