Coordinates from ORCA-job 1g-Schema5-R8-G+-B3LYPG-6-31G_dp-scan-d49-09-n400
 OpenBabel08281819463D

 29 29  0  0  0  0  0  0  0  0999 V2000
   -3.5097   -0.8858   -1.1472 C   0  0  0  0  0  0  0  0  0  0  0  0
   -3.3206   -0.2229    0.0471 C   0  0  0  0  0  0  0  0  0  0  0  0
   -3.8367    0.8794    0.3375 C   0  0  0  0  0  0  0  0  0  0  0  0
   -4.6656    1.6937   -0.4072 C   0  0  0  0  0  0  0  0  0  0  0  0
   -4.9099    1.0990   -1.6633 C   0  0  0  0  0  0  0  0  0  0  0  0
   -4.3440   -0.1442   -2.0309 C   0  0  0  0  0  0  0  0  0  0  0  0
   -3.1297   -1.8624   -1.4233 H   0  0  0  0  0  0  0  0  0  0  0  0
   -5.5520    1.6129   -2.3717 H   0  0  0  0  0  0  0  0  0  0  0  0
   -5.0961    2.6441   -0.1164 H   0  0  0  0  0  0  0  0  0  0  0  0
   -1.0981   -1.0624   -3.1557 N   0  0  0  0  0  0  0  0  0  0  0  0
   -0.9856   -1.9500   -3.8200 N   0  0  0  0  0  0  0  0  0  0  0  0
   -0.8482   -3.0532   -4.6360 C   0  0  0  0  0  0  0  0  0  0  0  0
   -2.0122   -3.6076   -5.2035 C   0  0  0  0  0  0  0  0  0  0  0  0
    0.4551   -3.5526   -4.8446 C   0  0  0  0  0  0  0  0  0  0  0  0
   -1.8418   -4.7194   -6.0180 C   0  0  0  0  0  0  0  0  0  0  0  0
   -2.9786   -3.1612   -4.9963 H   0  0  0  0  0  0  0  0  0  0  0  0
    0.5796   -4.6622   -5.6618 C   0  0  0  0  0  0  0  0  0  0  0  0
    1.3149   -3.0826   -4.3808 H   0  0  0  0  0  0  0  0  0  0  0  0
   -0.5597   -5.2435   -6.2448 C   0  0  0  0  0  0  0  0  0  0  0  0
   -2.7028   -5.1871   -6.4800 H   0  0  0  0  0  0  0  0  0  0  0  0
    1.5503   -5.1005   -5.8657 H   0  0  0  0  0  0  0  0  0  0  0  0
   -0.3352   -6.4505   -7.1184 C   0  0  0  0  0  0  0  0  0  0  0  0
    0.7626   -6.9166   -7.3175 O   0  0  0  0  0  0  0  0  0  0  0  0
   -1.4803   -6.9253   -7.6297 O   0  0  0  0  0  0  0  0  0  0  0  0
   -1.2653   -7.7019   -8.1757 H   0  0  0  0  0  0  0  0  0  0  0  0
   -4.5734   -0.7182   -3.3773 C   0  0  0  0  0  0  0  0  0  0  0  0
   -3.8839   -1.6098   -3.8655 O   0  0  0  0  0  0  0  0  0  0  0  0
   -5.6021   -0.1713   -4.0382 O   0  0  0  0  0  0  0  0  0  0  0  0
   -5.6630   -0.6036   -4.9065 H   0  0  0  0  0  0  0  0  0  0  0  0
  1  2  2  0  0  0  0
  2  3  1  0  0  0  0
  4  9  1  0  0  0  0
  4  3  2  0  0  0  0
  5  4  1  0  0  0  0
  6  5  2  0  0  0  0
  6  1  1  0  0  0  0
  7  1  1  0  0  0  0
  8  5  1  0  0  0  0
 11 10  1  0  0  0  0
 12 11  1  0  0  0  0
 13 16  1  0  0  0  0
 13 12  2  0  0  0  0
 14 12  1  0  0  0  0
 14 18  1  0  0  0  0
 15 13  1  0  0  0  0
 17 14  2  0  0  0  0
 19 15  2  0  0  0  0
 19 17  1  0  0  0  0
 20 15  1  0  0  0  0
 21 17  1  0  0  0  0
 22 19  1  0  0  0  0
 23 22  2  0  0  0  0
 24 22  1  0  0  0  0
 25 24  1  0  0  0  0
 26  6  1  0  0  0  0
 27 26  2  0  0  0  0
 28 26  1  0  0  0  0
 29 28  1  0  0  0  0
M  RAD  4   2   2   3   2  10   3  11   2
M  END
