Coordinates from ORCA-job 1g-Schema5-R8-G+-B3LYPG-6-31G_dp-scan-d49-09-n400
 OpenBabel08281819463D

 29 29  0  0  0  0  0  0  0  0999 V2000
   -3.4717   -0.6793   -1.0083 C   0  0  0  0  0  0  0  0  0  0  0  0
   -3.4143    0.0446    0.1631 C   0  0  0  0  0  0  0  0  0  0  0  0
   -4.0567    1.0951    0.3858 C   0  0  0  0  0  0  0  0  0  0  0  0
   -4.9323    1.7843   -0.4290 C   0  0  0  0  0  0  0  0  0  0  0  0
   -5.0535    1.1181   -1.6664 C   0  0  0  0  0  0  0  0  0  0  0  0
   -4.3413   -0.0700   -1.9560 C   0  0  0  0  0  0  0  0  0  0  0  0
   -2.9674   -1.6130   -1.2280 H   0  0  0  0  0  0  0  0  0  0  0  0
   -5.7123    1.5317   -2.4231 H   0  0  0  0  0  0  0  0  0  0  0  0
   -5.4727    2.6947   -0.1999 H   0  0  0  0  0  0  0  0  0  0  0  0
   -0.9625   -1.2095   -3.0717 N   0  0  0  0  0  0  0  0  0  0  0  0
   -0.8437   -2.0730   -3.7657 N   0  0  0  0  0  0  0  0  0  0  0  0
   -0.7469   -3.1465   -4.6249 C   0  0  0  0  0  0  0  0  0  0  0  0
   -1.9401   -3.6443   -5.1850 C   0  0  0  0  0  0  0  0  0  0  0  0
    0.5350   -3.6748   -4.8822 C   0  0  0  0  0  0  0  0  0  0  0  0
   -1.8225   -4.7286   -6.0441 C   0  0  0  0  0  0  0  0  0  0  0  0
   -2.8865   -3.1756   -4.9370 H   0  0  0  0  0  0  0  0  0  0  0  0
    0.6075   -4.7552   -5.7441 C   0  0  0  0  0  0  0  0  0  0  0  0
    1.4186   -3.2484   -4.4211 H   0  0  0  0  0  0  0  0  0  0  0  0
   -0.5617   -5.2801   -6.3212 C   0  0  0  0  0  0  0  0  0  0  0  0
   -2.7071   -5.1535   -6.5028 H   0  0  0  0  0  0  0  0  0  0  0  0
    1.5595   -5.2133   -5.9882 H   0  0  0  0  0  0  0  0  0  0  0  0
   -0.3934   -6.4580   -7.2458 C   0  0  0  0  0  0  0  0  0  0  0  0
    0.6850   -6.9461   -7.4913 O   0  0  0  0  0  0  0  0  0  0  0  0
   -1.5644   -6.8810   -7.7441 O   0  0  0  0  0  0  0  0  0  0  0  0
   -1.3855   -7.6410   -8.3253 H   0  0  0  0  0  0  0  0  0  0  0  0
   -4.4567   -0.7202   -3.2807 C   0  0  0  0  0  0  0  0  0  0  0  0
   -3.6806   -1.5793   -3.6951 O   0  0  0  0  0  0  0  0  0  0  0  0
   -5.4900   -0.2858   -4.0151 O   0  0  0  0  0  0  0  0  0  0  0  0
   -5.4735   -0.7577   -4.8641 H   0  0  0  0  0  0  0  0  0  0  0  0
  1  2  2  0  0  0  0
  2  3  1  0  0  0  0
  4  9  1  0  0  0  0
  4  3  2  0  0  0  0
  5  4  1  0  0  0  0
  6  5  2  0  0  0  0
  6  1  1  0  0  0  0
  7  1  1  0  0  0  0
  8  5  1  0  0  0  0
 11 10  1  0  0  0  0
 12 11  1  0  0  0  0
 13 16  1  0  0  0  0
 13 12  2  0  0  0  0
 14 12  1  0  0  0  0
 14 18  1  0  0  0  0
 15 13  1  0  0  0  0
 17 14  2  0  0  0  0
 19 15  2  0  0  0  0
 19 17  1  0  0  0  0
 20 15  1  0  0  0  0
 21 17  1  0  0  0  0
 22 19  1  0  0  0  0
 23 22  2  0  0  0  0
 24 22  1  0  0  0  0
 25 24  1  0  0  0  0
 26  6  1  0  0  0  0
 27 26  2  0  0  0  0
 28 26  1  0  0  0  0
 29 28  1  0  0  0  0
M  RAD  4   2   2   3   2  10   3  11   2
M  END
