Coordinates from ORCA-job 1g-Schema5-R8-G+-B3LYPG-6-31G_dp-scan-d49-09-n400
 OpenBabel08281819463D

 29 31  0  0  1  0  0  0  0  0999 V2000
   -4.0620   -1.5920   -1.5715 C   0  0  0  0  0  0  0  0  0  0  0  0
   -3.0227   -2.4916   -2.1756 C   0  0  0  0  0  0  0  0  0  0  0  0
   -2.8991   -2.3316   -3.6977 C   0  0  0  0  0  0  0  0  0  0  0  0
   -3.6400   -1.4026   -4.3893 C   0  0  0  0  0  0  0  0  0  0  0  0
   -4.5485   -0.5791   -3.7018 C   0  0  0  0  0  0  0  0  0  0  0  0
   -4.7740   -0.6793   -2.3061 C   0  0  0  0  0  0  0  0  0  0  0  0
   -4.2128   -1.6762   -0.4977 H   0  0  0  0  0  0  0  0  0  0  0  0
   -5.1082    0.1669   -4.2581 H   0  0  0  0  0  0  0  0  0  0  0  0
   -3.5366   -1.2777   -5.4633 H   0  0  0  0  0  0  0  0  0  0  0  0
   -2.4561   -3.0991   -1.6185 N   0  0  0  0  0  0  0  0  0  0  0  0
   -1.3996   -3.9258   -1.9349 N   0  0  0  0  0  0  0  0  0  0  0  0
   -1.1029   -3.9707   -3.2197 C   0  0  0  0  0  0  0  0  0  0  0  0
   -1.9718   -3.3341   -4.2817 C   0  0  2  0  0  0  0  0  0  0  0  0
    0.0537   -4.7010   -3.6348 C   0  0  0  0  0  0  0  0  0  0  0  0
   -1.3437   -3.1620   -5.6262 C   0  0  0  0  0  0  0  0  0  0  0  0
   -2.6836   -4.1803   -4.4845 H   0  0  0  0  0  0  0  0  0  0  0  0
    0.4894   -4.6157   -4.9254 C   0  0  0  0  0  0  0  0  0  0  0  0
    0.5951   -5.2585   -2.8784 H   0  0  0  0  0  0  0  0  0  0  0  0
   -0.1924   -3.8142   -5.9199 C   0  0  0  0  0  0  0  0  0  0  0  0
   -1.8584   -2.5838   -6.3851 H   0  0  0  0  0  0  0  0  0  0  0  0
    1.3908   -5.1290   -5.2453 H   0  0  0  0  0  0  0  0  0  0  0  0
    0.4501   -3.7330   -7.2753 C   0  0  0  0  0  0  0  0  0  0  0  0
    1.4800   -4.3051   -7.5465 O   0  0  0  0  0  0  0  0  0  0  0  0
   -0.2472   -2.9627   -8.1290 O   0  0  0  0  0  0  0  0  0  0  0  0
    0.2308   -2.9565   -8.9765 H   0  0  0  0  0  0  0  0  0  0  0  0
   -5.7746    0.1937   -1.5942 C   0  0  0  0  0  0  0  0  0  0  0  0
   -5.9838    0.1216   -0.4077 O   0  0  0  0  0  0  0  0  0  0  0  0
   -6.3867    1.0393   -2.4404 O   0  0  0  0  0  0  0  0  0  0  0  0
   -7.0169    1.5742   -1.9264 H   0  0  0  0  0  0  0  0  0  0  0  0
  1  7  1  0  0  0  0
  2 10  1  0  0  0  0
  2  1  1  0  0  0  0
  3  2  2  0  0  0  0
  4  5  2  0  0  0  0
  4  3  1  0  0  0  0
  5  6  1  0  0  0  0
  6 26  1  0  0  0  0
  6  1  2  0  0  0  0
  8  5  1  0  0  0  0
  9  4  1  0  0  0  0
 11 10  1  0  0  0  0
 12 11  2  0  0  0  0
 13 16  1  6  0  0  0
 13  3  1  0  0  0  0
 13 12  1  0  0  0  0
 14 12  1  0  0  0  0
 14 18  1  0  0  0  0
 15 13  1  0  0  0  0
 17 14  2  0  0  0  0
 19 15  2  0  0  0  0
 19 17  1  0  0  0  0
 20 15  1  0  0  0  0
 21 17  1  0  0  0  0
 22 19  1  0  0  0  0
 23 22  2  0  0  0  0
 24 22  1  0  0  0  0
 25 24  1  0  0  0  0
 26 27  2  0  0  0  0
 28 29  1  0  0  0  0
 28 26  1  0  0  0  0
M  RAD  1  10   2
M  END
