Coordinates from ORCA-job 1g-Schema5-R8-G+-B3LYPG-6-31G_dp-scan-d49-09-n400
 OpenBabel08281819463D

 29 31  0  0  1  0  0  0  0  0999 V2000
   -4.0802   -1.7140   -1.6555 C   0  0  0  0  0  0  0  0  0  0  0  0
   -3.2839   -2.6303   -2.3250 C   0  0  0  0  0  0  0  0  0  0  0  0
   -3.0269   -2.5745   -3.6911 C   0  0  0  0  0  0  0  0  0  0  0  0
   -3.6041   -1.5453   -4.4301 C   0  0  0  0  0  0  0  0  0  0  0  0
   -4.3903   -0.5858   -3.7764 C   0  0  0  0  0  0  0  0  0  0  0  0
   -4.6339   -0.6665   -2.3994 C   0  0  0  0  0  0  0  0  0  0  0  0
   -4.2760   -1.8009   -0.5919 H   0  0  0  0  0  0  0  0  0  0  0  0
   -4.8124    0.2370   -4.3423 H   0  0  0  0  0  0  0  0  0  0  0  0
   -3.4418   -1.4624   -5.4997 H   0  0  0  0  0  0  0  0  0  0  0  0
   -2.7191   -3.8625   -1.4906 N   0  0  0  0  0  0  0  0  0  0  0  0
   -1.7357   -4.4316   -2.0014 N   0  0  0  0  0  0  0  0  0  0  0  0
   -1.2486   -4.1912   -3.2651 C   0  0  0  0  0  0  0  0  0  0  0  0
   -2.2003   -3.7342   -4.3115 C   0  0  2  0  0  0  0  0  0  0  0  0
    0.1072   -4.3770   -3.5180 C   0  0  0  0  0  0  0  0  0  0  0  0
   -1.5923   -3.5062   -5.6469 C   0  0  0  0  0  0  0  0  0  0  0  0
   -2.9526   -4.5342   -4.4783 H   0  0  0  0  0  0  0  0  0  0  0  0
    0.5950   -4.0942   -4.7877 C   0  0  0  0  0  0  0  0  0  0  0  0
    0.7606   -4.7074   -2.7174 H   0  0  0  0  0  0  0  0  0  0  0  0
   -0.2556   -3.6763   -5.8586 C   0  0  0  0  0  0  0  0  0  0  0  0
   -2.2469   -3.2628   -6.4773 H   0  0  0  0  0  0  0  0  0  0  0  0
    1.6544   -4.1952   -5.0087 H   0  0  0  0  0  0  0  0  0  0  0  0
    0.3974   -3.4573   -7.1973 C   0  0  0  0  0  0  0  0  0  0  0  0
    1.5874   -3.5814   -7.3644 O   0  0  0  0  0  0  0  0  0  0  0  0
   -0.4905   -3.1110   -8.1402 O   0  0  0  0  0  0  0  0  0  0  0  0
   -0.0088   -2.9826   -8.9765 H   0  0  0  0  0  0  0  0  0  0  0  0
   -5.4812    0.3310   -1.6663 C   0  0  0  0  0  0  0  0  0  0  0  0
   -5.7020    0.2661   -0.4786 O   0  0  0  0  0  0  0  0  0  0  0  0
   -5.9582    1.2903   -2.4797 O   0  0  0  0  0  0  0  0  0  0  0  0
   -6.4924    1.8947   -1.9358 H   0  0  0  0  0  0  0  0  0  0  0  0
  1  7  1  0  0  0  0
  2  1  1  0  0  0  0
  2 10  1  0  0  0  0
  3  2  2  0  0  0  0
  4  5  2  0  0  0  0
  4  3  1  0  0  0  0
  5  6  1  0  0  0  0
  6 26  1  0  0  0  0
  6  1  2  0  0  0  0
  8  5  1  0  0  0  0
  9  4  1  0  0  0  0
 11 10  1  0  0  0  0
 12 11  1  0  0  0  0
 13 16  1  6  0  0  0
 13  3  1  0  0  0  0
 13 12  1  0  0  0  0
 14 12  2  0  0  0  0
 14 18  1  0  0  0  0
 15 13  1  0  0  0  0
 17 14  1  0  0  0  0
 19 15  2  0  0  0  0
 19 17  1  0  0  0  0
 20 15  1  0  0  0  0
 21 17  1  0  0  0  0
 22 19  1  0  0  0  0
 23 22  2  0  0  0  0
 24 22  1  0  0  0  0
 25 24  1  0  0  0  0
 26 27  2  0  0  0  0
 28 29  1  0  0  0  0
 28 26  1  0  0  0  0
M  RAD  3  10   2  11   2  17   2
M  END
