Coordinates from ORCA-job 1g-Schema5-R8-G+-B3LYPG-6-31G_dp-scan-d49-09-n400
 OpenBabel08281819463D

 29 29  0  0  0  0  0  0  0  0999 V2000
   -3.4391   -0.5245   -0.9265 C   0  0  0  0  0  0  0  0  0  0  0  0
   -3.5566    0.1518    0.2682 C   0  0  0  0  0  0  0  0  0  0  0  0
   -4.3414    1.1026    0.4821 C   0  0  0  0  0  0  0  0  0  0  0  0
   -5.2460    1.7048   -0.3700 C   0  0  0  0  0  0  0  0  0  0  0  0
   -5.2003    1.0785   -1.6322 C   0  0  0  0  0  0  0  0  0  0  0  0
   -4.3233    0.0016   -1.9097 C   0  0  0  0  0  0  0  0  0  0  0  0
   -2.7923   -1.3661   -1.1442 H   0  0  0  0  0  0  0  0  0  0  0  0
   -5.8567    1.4352   -2.4189 H   0  0  0  0  0  0  0  0  0  0  0  0
   -5.9123    2.5308   -0.1512 H   0  0  0  0  0  0  0  0  0  0  0  0
   -0.7715   -1.2135   -3.1413 N   0  0  0  0  0  0  0  0  0  0  0  0
   -0.6749   -2.0861   -3.8269 N   0  0  0  0  0  0  0  0  0  0  0  0
   -0.6367   -3.1704   -4.6771 C   0  0  0  0  0  0  0  0  0  0  0  0
   -1.8651   -3.6391   -5.1838 C   0  0  0  0  0  0  0  0  0  0  0  0
    0.6173   -3.7391   -4.9779 C   0  0  0  0  0  0  0  0  0  0  0  0
   -1.8145   -4.7365   -6.0323 C   0  0  0  0  0  0  0  0  0  0  0  0
   -2.7859   -3.1380   -4.9047 H   0  0  0  0  0  0  0  0  0  0  0  0
    0.6240   -4.8309   -5.8288 C   0  0  0  0  0  0  0  0  0  0  0  0
    1.5305   -3.3340   -4.5571 H   0  0  0  0  0  0  0  0  0  0  0  0
   -0.5820   -5.3281   -6.3519 C   0  0  0  0  0  0  0  0  0  0  0  0
   -2.7285   -5.1407   -6.4501 H   0  0  0  0  0  0  0  0  0  0  0  0
    1.5516   -5.3197   -6.1049 H   0  0  0  0  0  0  0  0  0  0  0  0
   -0.4853   -6.5215   -7.2667 C   0  0  0  0  0  0  0  0  0  0  0  0
    0.5682   -7.0398   -7.5545 O   0  0  0  0  0  0  0  0  0  0  0  0
   -1.6879   -6.9186   -7.7083 O   0  0  0  0  0  0  0  0  0  0  0  0
   -1.5547   -7.6898   -8.2871 H   0  0  0  0  0  0  0  0  0  0  0  0
   -4.2878   -0.6172   -3.2526 C   0  0  0  0  0  0  0  0  0  0  0  0
   -3.4344   -1.4236   -3.6231 O   0  0  0  0  0  0  0  0  0  0  0  0
   -5.2810   -0.2235   -4.0627 O   0  0  0  0  0  0  0  0  0  0  0  0
   -5.1652   -0.6703   -4.9172 H   0  0  0  0  0  0  0  0  0  0  0  0
  1  2  2  0  0  0  0
  2  3  1  0  0  0  0
  4  9  1  0  0  0  0
  4  3  2  0  0  0  0
  5  4  1  0  0  0  0
  6  5  2  0  0  0  0
  6  1  1  0  0  0  0
  7  1  1  0  0  0  0
  8  5  1  0  0  0  0
 11 10  1  0  0  0  0
 12 11  1  0  0  0  0
 13 16  1  0  0  0  0
 13 12  2  0  0  0  0
 14 12  1  0  0  0  0
 14 18  1  0  0  0  0
 15 13  1  0  0  0  0
 17 14  2  0  0  0  0
 19 15  2  0  0  0  0
 19 17  1  0  0  0  0
 20 15  1  0  0  0  0
 21 17  1  0  0  0  0
 22 19  1  0  0  0  0
 23 22  2  0  0  0  0
 24 22  1  0  0  0  0
 25 24  1  0  0  0  0
 26  6  1  0  0  0  0
 27 26  2  0  0  0  0
 28 26  1  0  0  0  0
 29 28  1  0  0  0  0
M  RAD  4   2   2   3   2  10   3  11   2
M  END
