Coordinates from ORCA-job 1g-Schema5-R8-G+-B3LYPG-6-31G_dp-scan-d49-09-n400
 OpenBabel08281819463D

 29 29  0  0  0  0  0  0  0  0999 V2000
   -3.7533   -1.4521   -1.5971 C   0  0  0  0  0  0  0  0  0  0  0  0
   -3.0911   -0.9108   -0.5098 C   0  0  0  0  0  0  0  0  0  0  0  0
   -3.1203    0.3011   -0.1975 C   0  0  0  0  0  0  0  0  0  0  0  0
   -3.7404    1.3651   -0.8178 C   0  0  0  0  0  0  0  0  0  0  0  0
   -4.4315    0.9074   -1.9629 C   0  0  0  0  0  0  0  0  0  0  0  0
   -4.4280   -0.4509   -2.3517 C   0  0  0  0  0  0  0  0  0  0  0  0
   -3.7992   -2.4962   -1.8884 H   0  0  0  0  0  0  0  0  0  0  0  0
   -4.9873    1.6219   -2.5617 H   0  0  0  0  0  0  0  0  0  0  0  0
   -3.7456    2.4032   -0.5075 H   0  0  0  0  0  0  0  0  0  0  0  0
   -1.3046   -0.9021   -2.8260 N   0  0  0  0  0  0  0  0  0  0  0  0
   -1.1018   -1.7538   -3.5217 N   0  0  0  0  0  0  0  0  0  0  0  0
   -0.9225   -2.8365   -4.3571 C   0  0  0  0  0  0  0  0  0  0  0  0
   -2.0742   -3.4232   -4.9191 C   0  0  0  0  0  0  0  0  0  0  0  0
    0.3944   -3.2855   -4.5889 C   0  0  0  0  0  0  0  0  0  0  0  0
   -1.8747   -4.5195   -5.7485 C   0  0  0  0  0  0  0  0  0  0  0  0
   -3.0626   -3.0189   -4.7088 H   0  0  0  0  0  0  0  0  0  0  0  0
    0.5472   -4.3818   -5.4194 C   0  0  0  0  0  0  0  0  0  0  0  0
    1.2425   -2.7907   -4.1296 H   0  0  0  0  0  0  0  0  0  0  0  0
   -0.5781   -4.9966   -5.9952 C   0  0  0  0  0  0  0  0  0  0  0  0
   -2.7255   -5.0092   -6.2068 H   0  0  0  0  0  0  0  0  0  0  0  0
    1.5299   -4.7838   -5.6400 H   0  0  0  0  0  0  0  0  0  0  0  0
   -0.3223   -6.1858   -6.8841 C   0  0  0  0  0  0  0  0  0  0  0  0
    0.7888   -6.6094   -7.1040 O   0  0  0  0  0  0  0  0  0  0  0  0
   -1.4564   -6.6978   -7.3841 O   0  0  0  0  0  0  0  0  0  0  0  0
   -1.2203   -7.4602   -7.9412 H   0  0  0  0  0  0  0  0  0  0  0  0
   -5.0854   -0.8955   -3.6114 C   0  0  0  0  0  0  0  0  0  0  0  0
   -4.7795   -1.9191   -4.2067 O   0  0  0  0  0  0  0  0  0  0  0  0
   -6.0356   -0.0597   -4.0489 O   0  0  0  0  0  0  0  0  0  0  0  0
   -6.3946   -0.4257   -4.8757 H   0  0  0  0  0  0  0  0  0  0  0  0
  1  2  2  0  0  0  0
  2  3  1  0  0  0  0
  4  9  1  0  0  0  0
  4  3  2  0  0  0  0
  5  4  1  0  0  0  0
  6  5  2  0  0  0  0
  6  1  1  0  0  0  0
  7  1  1  0  0  0  0
  8  5  1  0  0  0  0
 11 10  1  0  0  0  0
 12 11  1  0  0  0  0
 13 16  1  0  0  0  0
 13 12  2  0  0  0  0
 14 12  1  0  0  0  0
 14 18  1  0  0  0  0
 15 13  1  0  0  0  0
 17 14  2  0  0  0  0
 19 15  2  0  0  0  0
 19 17  1  0  0  0  0
 20 15  1  0  0  0  0
 21 17  1  0  0  0  0
 22 19  1  0  0  0  0
 23 22  2  0  0  0  0
 24 22  1  0  0  0  0
 25 24  1  0  0  0  0
 26  6  1  0  0  0  0
 27 26  2  0  0  0  0
 28 26  1  0  0  0  0
 29 28  1  0  0  0  0
M  RAD  4   2   2   3   2  10   3  11   2
M  END
