Coordinates from ORCA-job 1g-Schema5-R8-G+-B3LYPG-6-31G_dp-scan-d49-09-n400
 OpenBabel08281819463D

 29 29  0  0  0  0  0  0  0  0999 V2000
   -3.6514   -1.2577   -1.4387 C   0  0  0  0  0  0  0  0  0  0  0  0
   -3.1814   -0.7139   -0.2595 C   0  0  0  0  0  0  0  0  0  0  0  0
   -3.3924    0.4630    0.1099 C   0  0  0  0  0  0  0  0  0  0  0  0
   -4.0832    1.4810   -0.5152 C   0  0  0  0  0  0  0  0  0  0  0  0
   -4.5921    1.0197   -1.7492 C   0  0  0  0  0  0  0  0  0  0  0  0
   -4.3751   -0.2996   -2.2063 C   0  0  0  0  0  0  0  0  0  0  0  0
   -3.5465   -2.2819   -1.7797 H   0  0  0  0  0  0  0  0  0  0  0  0
   -5.1702    1.6998   -2.3666 H   0  0  0  0  0  0  0  0  0  0  0  0
   -4.2518    2.4879   -0.1527 H   0  0  0  0  0  0  0  0  0  0  0  0
   -1.3590   -0.9053   -3.1190 N   0  0  0  0  0  0  0  0  0  0  0  0
   -1.2086   -1.7959   -3.7759 N   0  0  0  0  0  0  0  0  0  0  0  0
   -0.9979   -2.9106   -4.5613 C   0  0  0  0  0  0  0  0  0  0  0  0
   -2.1190   -3.5550   -5.1191 C   0  0  0  0  0  0  0  0  0  0  0  0
    0.3363   -3.3336   -4.7453 C   0  0  0  0  0  0  0  0  0  0  0  0
   -1.8727   -4.6811   -5.8939 C   0  0  0  0  0  0  0  0  0  0  0  0
   -3.1142   -3.1619   -4.9399 H   0  0  0  0  0  0  0  0  0  0  0  0
    0.5368   -4.4608   -5.5223 C   0  0  0  0  0  0  0  0  0  0  0  0
    1.1609   -2.7955   -4.2918 H   0  0  0  0  0  0  0  0  0  0  0  0
   -0.5587   -5.1323   -6.0924 C   0  0  0  0  0  0  0  0  0  0  0  0
   -2.6991   -5.2156   -6.3466 H   0  0  0  0  0  0  0  0  0  0  0  0
    1.5346   -4.8446   -5.7038 H   0  0  0  0  0  0  0  0  0  0  0  0
   -0.2511   -6.3531   -6.9199 C   0  0  0  0  0  0  0  0  0  0  0  0
    0.8759   -6.7541   -7.0971 O   0  0  0  0  0  0  0  0  0  0  0  0
   -1.3595   -6.9208   -7.4172 O   0  0  0  0  0  0  0  0  0  0  0  0
   -1.0905   -7.7015   -7.9323 H   0  0  0  0  0  0  0  0  0  0  0  0
   -4.8455   -0.7359   -3.5458 C   0  0  0  0  0  0  0  0  0  0  0  0
   -4.3684   -1.6872   -4.1525 O   0  0  0  0  0  0  0  0  0  0  0  0
   -5.8306    0.0178   -4.0501 O   0  0  0  0  0  0  0  0  0  0  0  0
   -6.0574   -0.3369   -4.9268 H   0  0  0  0  0  0  0  0  0  0  0  0
  1  2  2  0  0  0  0
  2  3  1  0  0  0  0
  4  9  1  0  0  0  0
  4  3  2  0  0  0  0
  5  4  1  0  0  0  0
  6  5  2  0  0  0  0
  6  1  1  0  0  0  0
  7  1  1  0  0  0  0
  8  5  1  0  0  0  0
 11 10  1  0  0  0  0
 12 11  1  0  0  0  0
 13 16  1  0  0  0  0
 13 12  2  0  0  0  0
 14 12  1  0  0  0  0
 14 18  1  0  0  0  0
 15 13  1  0  0  0  0
 17 14  2  0  0  0  0
 19 15  2  0  0  0  0
 19 17  1  0  0  0  0
 20 15  1  0  0  0  0
 21 17  1  0  0  0  0
 22 19  1  0  0  0  0
 23 22  2  0  0  0  0
 24 22  1  0  0  0  0
 25 24  1  0  0  0  0
 26  6  1  0  0  0  0
 27 26  2  0  0  0  0
 28 26  1  0  0  0  0
 29 28  1  0  0  0  0
M  RAD  4   2   2   3   2  10   3  11   2
M  END
