Coordinates from ORCA-job 1g-Schema5-R8-G+-B3LYPG-6-31G_dp-scan-d49-09-n400
 OpenBabel08281819463D

 29 31  0  0  1  0  0  0  0  0999 V2000
   -4.1047   -1.7592   -1.6694 C   0  0  0  0  0  0  0  0  0  0  0  0
   -3.3520   -2.6955   -2.3402 C   0  0  0  0  0  0  0  0  0  0  0  0
   -3.0527   -2.6717   -3.6853 C   0  0  0  0  0  0  0  0  0  0  0  0
   -3.5423   -1.5984   -4.4341 C   0  0  0  0  0  0  0  0  0  0  0  0
   -4.2955   -0.6043   -3.7971 C   0  0  0  0  0  0  0  0  0  0  0  0
   -4.5816   -0.6789   -2.4289 C   0  0  0  0  0  0  0  0  0  0  0  0
   -4.3271   -1.8300   -0.6101 H   0  0  0  0  0  0  0  0  0  0  0  0
   -4.6597    0.2409   -4.3699 H   0  0  0  0  0  0  0  0  0  0  0  0
   -3.3442   -1.5249   -5.4988 H   0  0  0  0  0  0  0  0  0  0  0  0
   -2.7663   -4.0997   -1.4712 N   0  0  0  0  0  0  0  0  0  0  0  0
   -1.7961   -4.5790   -2.0399 N   0  0  0  0  0  0  0  0  0  0  0  0
   -1.2814   -4.2622   -3.2694 C   0  0  0  0  0  0  0  0  0  0  0  0
   -2.2656   -3.8788   -4.3191 C   0  0  2  0  0  0  0  0  0  0  0  0
    0.0931   -4.2636   -3.4831 C   0  0  0  0  0  0  0  0  0  0  0  0
   -1.6624   -3.6253   -5.6505 C   0  0  0  0  0  0  0  0  0  0  0  0
   -3.0257   -4.6688   -4.4493 H   0  0  0  0  0  0  0  0  0  0  0  0
    0.5662   -3.9135   -4.7408 C   0  0  0  0  0  0  0  0  0  0  0  0
    0.7674   -4.5109   -2.6703 H   0  0  0  0  0  0  0  0  0  0  0  0
   -0.3103   -3.6200   -5.8321 C   0  0  0  0  0  0  0  0  0  0  0  0
   -2.3244   -3.4926   -6.5000 H   0  0  0  0  0  0  0  0  0  0  0  0
    1.6343   -3.8709   -4.9379 H   0  0  0  0  0  0  0  0  0  0  0  0
    0.3366   -3.3457   -7.1636 C   0  0  0  0  0  0  0  0  0  0  0  0
    1.5359   -3.3254   -7.3085 O   0  0  0  0  0  0  0  0  0  0  0  0
   -0.5686   -3.1285   -8.1285 O   0  0  0  0  0  0  0  0  0  0  0  0
   -0.0899   -2.9607   -8.9595 H   0  0  0  0  0  0  0  0  0  0  0  0
   -5.3871    0.3623   -1.7094 C   0  0  0  0  0  0  0  0  0  0  0  0
   -5.6369    0.3057   -0.5267 O   0  0  0  0  0  0  0  0  0  0  0  0
   -5.7903    1.3513   -2.5270 O   0  0  0  0  0  0  0  0  0  0  0  0
   -6.3006    1.9825   -1.9907 H   0  0  0  0  0  0  0  0  0  0  0  0
  1  7  1  0  0  0  0
  2  1  1  0  0  0  0
  2 10  1  0  0  0  0
  3  2  2  0  0  0  0
  4  5  2  0  0  0  0
  4  3  1  0  0  0  0
  5  6  1  0  0  0  0
  6 26  1  0  0  0  0
  6  1  2  0  0  0  0
  8  5  1  0  0  0  0
  9  4  1  0  0  0  0
 11 10  1  0  0  0  0
 12 11  1  0  0  0  0
 13 16  1  6  0  0  0
 13  3  1  0  0  0  0
 13 12  1  0  0  0  0
 14 12  2  0  0  0  0
 14 18  1  0  0  0  0
 15 13  1  0  0  0  0
 17 14  1  0  0  0  0
 19 15  2  0  0  0  0
 19 17  1  0  0  0  0
 20 15  1  0  0  0  0
 21 17  1  0  0  0  0
 22 19  1  0  0  0  0
 23 22  2  0  0  0  0
 24 22  1  0  0  0  0
 25 24  1  0  0  0  0
 26 27  2  0  0  0  0
 28 29  1  0  0  0  0
 28 26  1  0  0  0  0
M  RAD  3  10   2  11   2  17   2
M  END
