Coordinates from ORCA-job 1g-Schema5-R8-G+-B3LYPG-6-31G_dp-scan-d49-09-n400
 OpenBabel08281819463D

 29 31  0  0  1  0  0  0  0  0999 V2000
   -4.0676   -1.6421   -1.6313 C   0  0  0  0  0  0  0  0  0  0  0  0
   -3.1775   -2.5030   -2.2928 C   0  0  0  0  0  0  0  0  0  0  0  0
   -2.9550   -2.3997   -3.6843 C   0  0  0  0  0  0  0  0  0  0  0  0
   -3.6399   -1.4339   -4.4092 C   0  0  0  0  0  0  0  0  0  0  0  0
   -4.5067   -0.5552   -3.7443 C   0  0  0  0  0  0  0  0  0  0  0  0
   -4.7276   -0.6585   -2.3608 C   0  0  0  0  0  0  0  0  0  0  0  0
   -4.2345   -1.7494   -0.5645 H   0  0  0  0  0  0  0  0  0  0  0  0
   -5.0147    0.2227   -4.3035 H   0  0  0  0  0  0  0  0  0  0  0  0
   -3.5007   -1.3267   -5.4799 H   0  0  0  0  0  0  0  0  0  0  0  0
   -2.5482   -3.4980   -1.4789 N   0  0  0  0  0  0  0  0  0  0  0  0
   -1.5593   -4.1743   -1.9313 N   0  0  0  0  0  0  0  0  0  0  0  0
   -1.1602   -4.0556   -3.2440 C   0  0  0  0  0  0  0  0  0  0  0  0
   -2.0466   -3.4609   -4.2772 C   0  0  2  0  0  0  0  0  0  0  0  0
    0.0937   -4.5693   -3.5838 C   0  0  0  0  0  0  0  0  0  0  0  0
   -1.4401   -3.2780   -5.6202 C   0  0  0  0  0  0  0  0  0  0  0  0
   -2.7615   -4.2981   -4.5011 H   0  0  0  0  0  0  0  0  0  0  0  0
    0.5703   -4.4090   -4.8763 C   0  0  0  0  0  0  0  0  0  0  0  0
    0.6858   -5.0479   -2.8109 H   0  0  0  0  0  0  0  0  0  0  0  0
   -0.1955   -3.7643   -5.8975 C   0  0  0  0  0  0  0  0  0  0  0  0
   -2.0368   -2.8297   -6.4072 H   0  0  0  0  0  0  0  0  0  0  0  0
    1.5565   -4.7710   -5.1532 H   0  0  0  0  0  0  0  0  0  0  0  0
    0.4426   -3.6458   -7.2557 C   0  0  0  0  0  0  0  0  0  0  0  0
    1.5578   -4.0492   -7.4845 O   0  0  0  0  0  0  0  0  0  0  0  0
   -0.3683   -3.0515   -8.1437 O   0  0  0  0  0  0  0  0  0  0  0  0
    0.1013   -3.0017   -8.9950 H   0  0  0  0  0  0  0  0  0  0  0  0
   -5.6639    0.2527   -1.6215 C   0  0  0  0  0  0  0  0  0  0  0  0
   -5.8663    0.1695   -0.4323 O   0  0  0  0  0  0  0  0  0  0  0  0
   -6.2405    1.1549   -2.4354 O   0  0  0  0  0  0  0  0  0  0  0  0
   -6.8285    1.7070   -1.8914 H   0  0  0  0  0  0  0  0  0  0  0  0
  1  7  1  0  0  0  0
  2  1  1  0  0  0  0
  2 10  1  0  0  0  0
  3  2  2  0  0  0  0
  4  5  2  0  0  0  0
  4  3  1  0  0  0  0
  5  6  1  0  0  0  0
  6  1  2  0  0  0  0
  6 26  1  0  0  0  0
  8  5  1  0  0  0  0
  9  4  1  0  0  0  0
 11 10  2  0  0  0  0
 12 11  1  0  0  0  0
 13 16  1  6  0  0  0
 13  3  1  0  0  0  0
 13 12  1  0  0  0  0
 14 12  2  0  0  0  0
 14 18  1  0  0  0  0
 15 13  1  0  0  0  0
 17 14  1  0  0  0  0
 19 15  2  0  0  0  0
 19 17  1  0  0  0  0
 20 15  1  0  0  0  0
 21 17  1  0  0  0  0
 22 19  1  0  0  0  0
 23 22  2  0  0  0  0
 24 22  1  0  0  0  0
 25 24  1  0  0  0  0
 26 27  2  0  0  0  0
 28 29  1  0  0  0  0
 28 26  1  0  0  0  0
M  RAD  1  17   2
M  END
