Coordinates from ORCA-job 1g-Schema5-R8-G+-B3LYPG-6-31G_dp-scan-d49-09-n400
 OpenBabel08281819463D

 29 31  0  0  1  0  0  0  0  0999 V2000
   -4.0539   -1.6005   -1.5950 C   0  0  0  0  0  0  0  0  0  0  0  0
   -3.0579   -2.4735   -2.2185 C   0  0  0  0  0  0  0  0  0  0  0  0
   -2.9035   -2.3311   -3.6887 C   0  0  0  0  0  0  0  0  0  0  0  0
   -3.6406   -1.4014   -4.3906 C   0  0  0  0  0  0  0  0  0  0  0  0
   -4.5493   -0.5708   -3.7141 C   0  0  0  0  0  0  0  0  0  0  0  0
   -4.7681   -0.6754   -2.3226 C   0  0  0  0  0  0  0  0  0  0  0  0
   -4.1997   -1.6955   -0.5227 H   0  0  0  0  0  0  0  0  0  0  0  0
   -5.1045    0.1762   -4.2725 H   0  0  0  0  0  0  0  0  0  0  0  0
   -3.5259   -1.2840   -5.4636 H   0  0  0  0  0  0  0  0  0  0  0  0
   -2.4640   -3.1553   -1.5738 N   0  0  0  0  0  0  0  0  0  0  0  0
   -1.4342   -3.9534   -1.9313 N   0  0  0  0  0  0  0  0  0  0  0  0
   -1.1135   -3.9770   -3.2257 C   0  0  0  0  0  0  0  0  0  0  0  0
   -1.9734   -3.3366   -4.2781 C   0  0  2  0  0  0  0  0  0  0  0  0
    0.0521   -4.6831   -3.6249 C   0  0  0  0  0  0  0  0  0  0  0  0
   -1.3517   -3.1662   -5.6221 C   0  0  0  0  0  0  0  0  0  0  0  0
   -2.6791   -4.1863   -4.4921 H   0  0  0  0  0  0  0  0  0  0  0  0
    0.4976   -4.5905   -4.9182 C   0  0  0  0  0  0  0  0  0  0  0  0
    0.5978   -5.2318   -2.8650 H   0  0  0  0  0  0  0  0  0  0  0  0
   -0.1912   -3.8082   -5.9158 C   0  0  0  0  0  0  0  0  0  0  0  0
   -1.8758   -2.6024   -6.3856 H   0  0  0  0  0  0  0  0  0  0  0  0
    1.4098   -5.0895   -5.2308 H   0  0  0  0  0  0  0  0  0  0  0  0
    0.4498   -3.7291   -7.2732 C   0  0  0  0  0  0  0  0  0  0  0  0
    1.4910   -4.2832   -7.5364 O   0  0  0  0  0  0  0  0  0  0  0  0
   -0.2645   -2.9826   -8.1327 O   0  0  0  0  0  0  0  0  0  0  0  0
    0.2108   -2.9729   -8.9818 H   0  0  0  0  0  0  0  0  0  0  0  0
   -5.7583    0.1942   -1.5960 C   0  0  0  0  0  0  0  0  0  0  0  0
   -5.9581    0.1136   -0.4079 O   0  0  0  0  0  0  0  0  0  0  0  0
   -6.3754    1.0496   -2.4287 O   0  0  0  0  0  0  0  0  0  0  0  0
   -6.9984    1.5810   -1.9028 H   0  0  0  0  0  0  0  0  0  0  0  0
  1  7  1  0  0  0  0
  2  1  1  0  0  0  0
  2 10  1  0  0  0  0
  3  2  2  0  0  0  0
  4  5  2  0  0  0  0
  4  3  1  0  0  0  0
  5  6  1  0  0  0  0
  6 26  1  0  0  0  0
  6  1  2  0  0  0  0
  8  5  1  0  0  0  0
  9  4  1  0  0  0  0
 11 10  1  0  0  0  0
 12 11  2  0  0  0  0
 13 16  1  6  0  0  0
 13  3  1  0  0  0  0
 13 12  1  0  0  0  0
 14 12  1  0  0  0  0
 14 18  1  0  0  0  0
 15 13  1  0  0  0  0
 17 14  2  0  0  0  0
 19 15  2  0  0  0  0
 19 17  1  0  0  0  0
 20 15  1  0  0  0  0
 21 17  1  0  0  0  0
 22 19  1  0  0  0  0
 23 22  2  0  0  0  0
 24 22  1  0  0  0  0
 25 24  1  0  0  0  0
 26 27  2  0  0  0  0
 28 29  1  0  0  0  0
 28 26  1  0  0  0  0
M  RAD  1  10   2
M  END
