Coordinates from ORCA-job 1g-Schema5-R8-G+-B3LYPG-6-31G_dp-scan-d49-09-n400
 OpenBabel08281819463D

 29 29  0  0  0  0  0  0  0  0999 V2000
   -3.7637   -1.4406   -1.5702 C   0  0  0  0  0  0  0  0  0  0  0  0
   -3.1150   -0.9041   -0.4729 C   0  0  0  0  0  0  0  0  0  0  0  0
   -3.1388    0.3078   -0.1605 C   0  0  0  0  0  0  0  0  0  0  0  0
   -3.7417    1.3765   -0.7900 C   0  0  0  0  0  0  0  0  0  0  0  0
   -4.4211    0.9240   -1.9441 C   0  0  0  0  0  0  0  0  0  0  0  0
   -4.4222   -0.4342   -2.3329 C   0  0  0  0  0  0  0  0  0  0  0  0
   -3.8125   -2.4842   -1.8629 H   0  0  0  0  0  0  0  0  0  0  0  0
   -4.9638    1.6426   -2.5501 H   0  0  0  0  0  0  0  0  0  0  0  0
   -3.7431    2.4147   -0.4799 H   0  0  0  0  0  0  0  0  0  0  0  0
   -1.3544   -0.9083   -2.8588 N   0  0  0  0  0  0  0  0  0  0  0  0
   -1.1498   -1.7626   -3.5507 N   0  0  0  0  0  0  0  0  0  0  0  0
   -0.9543   -2.8464   -4.3811 C   0  0  0  0  0  0  0  0  0  0  0  0
   -2.0952   -3.4545   -4.9417 C   0  0  0  0  0  0  0  0  0  0  0  0
    0.3700   -3.2759   -4.6086 C   0  0  0  0  0  0  0  0  0  0  0  0
   -1.8772   -4.5520   -5.7648 C   0  0  0  0  0  0  0  0  0  0  0  0
   -3.0892   -3.0638   -4.7343 H   0  0  0  0  0  0  0  0  0  0  0  0
    0.5417   -4.3740   -5.4330 C   0  0  0  0  0  0  0  0  0  0  0  0
    1.2094   -2.7653   -4.1507 H   0  0  0  0  0  0  0  0  0  0  0  0
   -0.5728   -5.0099   -6.0070 C   0  0  0  0  0  0  0  0  0  0  0  0
   -2.7192   -5.0579   -6.2217 H   0  0  0  0  0  0  0  0  0  0  0  0
    1.5310   -4.7615   -5.6497 H   0  0  0  0  0  0  0  0  0  0  0  0
   -0.2967   -6.2001   -6.8884 C   0  0  0  0  0  0  0  0  0  0  0  0
    0.8214   -6.6069   -7.1045 O   0  0  0  0  0  0  0  0  0  0  0  0
   -1.4218   -6.7344   -7.3855 O   0  0  0  0  0  0  0  0  0  0  0  0
   -1.1727   -7.4965   -7.9372 H   0  0  0  0  0  0  0  0  0  0  0  0
   -5.0642   -0.8729   -3.6024 C   0  0  0  0  0  0  0  0  0  0  0  0
   -4.7508   -1.8941   -4.1979 O   0  0  0  0  0  0  0  0  0  0  0  0
   -6.0083   -0.0349   -4.0484 O   0  0  0  0  0  0  0  0  0  0  0  0
   -6.3567   -0.3967   -4.8816 H   0  0  0  0  0  0  0  0  0  0  0  0
  1  2  2  0  0  0  0
  2  3  1  0  0  0  0
  4  9  1  0  0  0  0
  4  3  2  0  0  0  0
  5  4  1  0  0  0  0
  6  5  2  0  0  0  0
  6  1  1  0  0  0  0
  7  1  1  0  0  0  0
  8  5  1  0  0  0  0
 11 10  1  0  0  0  0
 12 11  1  0  0  0  0
 13 16  1  0  0  0  0
 13 12  2  0  0  0  0
 14 12  1  0  0  0  0
 14 18  1  0  0  0  0
 15 13  1  0  0  0  0
 17 14  2  0  0  0  0
 19 15  2  0  0  0  0
 19 17  1  0  0  0  0
 20 15  1  0  0  0  0
 21 17  1  0  0  0  0
 22 19  1  0  0  0  0
 23 22  2  0  0  0  0
 24 22  1  0  0  0  0
 25 24  1  0  0  0  0
 26  6  1  0  0  0  0
 27 26  2  0  0  0  0
 28 26  1  0  0  0  0
 29 28  1  0  0  0  0
M  RAD  4   2   2   3   2  10   3  11   2
M  END
