Coordinates from ORCA-job 1g-Schema5-R8-G+-B3LYPG-6-31G_dp-scan-d49-09-n400
 OpenBabel08281819463D

 29 31  0  0  1  0  0  0  0  0999 V2000
   -4.0522   -1.6055   -1.6052 C   0  0  0  0  0  0  0  0  0  0  0  0
   -3.0793   -2.4677   -2.2387 C   0  0  0  0  0  0  0  0  0  0  0  0
   -2.9091   -2.3340   -3.6861 C   0  0  0  0  0  0  0  0  0  0  0  0
   -3.6419   -1.4020   -4.3938 C   0  0  0  0  0  0  0  0  0  0  0  0
   -4.5478   -0.5665   -3.7211 C   0  0  0  0  0  0  0  0  0  0  0  0
   -4.7636   -0.6723   -2.3315 C   0  0  0  0  0  0  0  0  0  0  0  0
   -4.1982   -1.7044   -0.5338 H   0  0  0  0  0  0  0  0  0  0  0  0
   -5.0991    0.1827   -4.2799 H   0  0  0  0  0  0  0  0  0  0  0  0
   -3.5223   -1.2874   -5.4663 H   0  0  0  0  0  0  0  0  0  0  0  0
   -2.4671   -3.2031   -1.5470 N   0  0  0  0  0  0  0  0  0  0  0  0
   -1.4526   -3.9814   -1.9267 N   0  0  0  0  0  0  0  0  0  0  0  0
   -1.1197   -3.9852   -3.2288 C   0  0  0  0  0  0  0  0  0  0  0  0
   -1.9780   -3.3447   -4.2755 C   0  0  2  0  0  0  0  0  0  0  0  0
    0.0547   -4.6702   -3.6191 C   0  0  0  0  0  0  0  0  0  0  0  0
   -1.3603   -3.1751   -5.6195 C   0  0  0  0  0  0  0  0  0  0  0  0
   -2.6810   -4.1958   -4.4953 H   0  0  0  0  0  0  0  0  0  0  0  0
    0.5058   -4.5707   -4.9139 C   0  0  0  0  0  0  0  0  0  0  0  0
    0.6052   -5.2116   -2.8574 H   0  0  0  0  0  0  0  0  0  0  0  0
   -0.1907   -3.8042   -5.9135 C   0  0  0  0  0  0  0  0  0  0  0  0
   -1.8935   -2.6235   -6.3856 H   0  0  0  0  0  0  0  0  0  0  0  0
    1.4269   -5.0567   -5.2217 H   0  0  0  0  0  0  0  0  0  0  0  0
    0.4484   -3.7238   -7.2723 C   0  0  0  0  0  0  0  0  0  0  0  0
    1.5002   -4.2597   -7.5301 O   0  0  0  0  0  0  0  0  0  0  0  0
   -0.2780   -2.9931   -8.1342 O   0  0  0  0  0  0  0  0  0  0  0  0
    0.1963   -2.9774   -8.9840 H   0  0  0  0  0  0  0  0  0  0  0  0
   -5.7465    0.1992   -1.5993 C   0  0  0  0  0  0  0  0  0  0  0  0
   -5.9434    0.1158   -0.4105 O   0  0  0  0  0  0  0  0  0  0  0  0
   -6.3635    1.0606   -2.4261 O   0  0  0  0  0  0  0  0  0  0  0  0
   -6.9817    1.5920   -1.8946 H   0  0  0  0  0  0  0  0  0  0  0  0
  1  7  1  0  0  0  0
  2  1  1  0  0  0  0
  2 10  1  0  0  0  0
  3  2  2  0  0  0  0
  4  5  2  0  0  0  0
  4  3  1  0  0  0  0
  5  6  1  0  0  0  0
  6  1  2  0  0  0  0
  6 26  1  0  0  0  0
  8  5  1  0  0  0  0
  9  4  1  0  0  0  0
 11 10  1  0  0  0  0
 12 11  2  0  0  0  0
 13 16  1  6  0  0  0
 13  3  1  0  0  0  0
 13 12  1  0  0  0  0
 14 12  1  0  0  0  0
 14 18  1  0  0  0  0
 15 13  1  0  0  0  0
 17 14  2  0  0  0  0
 19 15  2  0  0  0  0
 19 17  1  0  0  0  0
 20 15  1  0  0  0  0
 21 17  1  0  0  0  0
 22 19  1  0  0  0  0
 23 22  2  0  0  0  0
 24 22  1  0  0  0  0
 25 24  1  0  0  0  0
 26 27  2  0  0  0  0
 28 29  1  0  0  0  0
 28 26  1  0  0  0  0
M  RAD  1  10   2
M  END
