Coordinates from ORCA-job 1g-Schema5-R8-G+-B3LYPG-6-31G_dp-scan-d49-09-n400
 OpenBabel08281819463D

 29 29  0  0  0  0  0  0  0  0999 V2000
   -3.4432   -0.5374   -0.9311 C   0  0  0  0  0  0  0  0  0  0  0  0
   -3.5423    0.1483    0.2600 C   0  0  0  0  0  0  0  0  0  0  0  0
   -4.3117    1.1117    0.4731 C   0  0  0  0  0  0  0  0  0  0  0  0
   -5.2130    1.7220   -0.3767 C   0  0  0  0  0  0  0  0  0  0  0  0
   -5.1852    1.0869   -1.6352 C   0  0  0  0  0  0  0  0  0  0  0  0
   -4.3259   -0.0042   -1.9118 C   0  0  0  0  0  0  0  0  0  0  0  0
   -2.8113   -1.3909   -1.1471 H   0  0  0  0  0  0  0  0  0  0  0  0
   -5.8419    1.4480   -2.4197 H   0  0  0  0  0  0  0  0  0  0  0  0
   -5.8659    2.5587   -0.1586 H   0  0  0  0  0  0  0  0  0  0  0  0
   -0.7995   -1.2215   -3.1279 N   0  0  0  0  0  0  0  0  0  0  0  0
   -0.6961   -2.0901   -3.8177 N   0  0  0  0  0  0  0  0  0  0  0  0
   -0.6496   -3.1716   -4.6709 C   0  0  0  0  0  0  0  0  0  0  0  0
   -1.8737   -3.6439   -5.1846 C   0  0  0  0  0  0  0  0  0  0  0  0
    0.6082   -3.7341   -4.9679 C   0  0  0  0  0  0  0  0  0  0  0  0
   -1.8146   -4.7384   -6.0363 C   0  0  0  0  0  0  0  0  0  0  0  0
   -2.7979   -3.1477   -4.9081 H   0  0  0  0  0  0  0  0  0  0  0  0
    0.6233   -4.8232   -5.8221 C   0  0  0  0  0  0  0  0  0  0  0  0
    1.5178   -3.3265   -4.5417 H   0  0  0  0  0  0  0  0  0  0  0  0
   -0.5782   -5.3237   -6.3522 C   0  0  0  0  0  0  0  0  0  0  0  0
   -2.7250   -5.1450   -6.4596 H   0  0  0  0  0  0  0  0  0  0  0  0
    1.5542   -5.3072   -6.0956 H   0  0  0  0  0  0  0  0  0  0  0  0
   -0.4724   -6.5137   -7.2705 C   0  0  0  0  0  0  0  0  0  0  0  0
    0.5844   -7.0280   -7.5536 O   0  0  0  0  0  0  0  0  0  0  0  0
   -1.6714   -6.9154   -7.7176 O   0  0  0  0  0  0  0  0  0  0  0  0
   -1.5326   -7.6850   -8.2971 H   0  0  0  0  0  0  0  0  0  0  0  0
   -4.3063   -0.6304   -3.2518 C   0  0  0  0  0  0  0  0  0  0  0  0
   -3.4612   -1.4443   -3.6244 O   0  0  0  0  0  0  0  0  0  0  0  0
   -5.3030   -0.2336   -4.0558 O   0  0  0  0  0  0  0  0  0  0  0  0
   -5.1977   -0.6857   -4.9088 H   0  0  0  0  0  0  0  0  0  0  0  0
  1  2  2  0  0  0  0
  2  3  1  0  0  0  0
  4  9  1  0  0  0  0
  4  3  2  0  0  0  0
  5  4  1  0  0  0  0
  6  5  2  0  0  0  0
  6  1  1  0  0  0  0
  7  1  1  0  0  0  0
  8  5  1  0  0  0  0
 11 10  1  0  0  0  0
 12 11  1  0  0  0  0
 13 16  1  0  0  0  0
 13 12  2  0  0  0  0
 14 12  1  0  0  0  0
 14 18  1  0  0  0  0
 15 13  1  0  0  0  0
 17 14  2  0  0  0  0
 19 15  2  0  0  0  0
 19 17  1  0  0  0  0
 20 15  1  0  0  0  0
 21 17  1  0  0  0  0
 22 19  1  0  0  0  0
 23 22  2  0  0  0  0
 24 22  1  0  0  0  0
 25 24  1  0  0  0  0
 26  6  1  0  0  0  0
 27 26  2  0  0  0  0
 28 26  1  0  0  0  0
 29 28  1  0  0  0  0
M  RAD  4   2   2   3   2  10   3  11   2
M  END
