Coordinates from ORCA-job 1g-Schema5-R8-G+-B3LYPG-6-31G_dp-scan-d49-09-n400
 OpenBabel08281819463D

 29 29  0  0  0  0  0  0  0  0999 V2000
   -3.4593   -1.2592   -1.9344 C   0  0  0  0  0  0  0  0  0  0  0  0
   -2.5933   -0.4702   -1.1831 C   0  0  0  0  0  0  0  0  0  0  0  0
   -2.8459    0.7550   -1.0434 C   0  0  0  0  0  0  0  0  0  0  0  0
   -3.8132    1.5985   -1.5261 C   0  0  0  0  0  0  0  0  0  0  0  0
   -4.6973    0.8404   -2.3299 C   0  0  0  0  0  0  0  0  0  0  0  0
   -4.5130   -0.5426   -2.5454 C   0  0  0  0  0  0  0  0  0  0  0  0
   -3.3723   -2.3309   -2.0832 H   0  0  0  0  0  0  0  0  0  0  0  0
   -5.5431    1.3415   -2.7898 H   0  0  0  0  0  0  0  0  0  0  0  0
   -3.9424    2.6565   -1.3356 H   0  0  0  0  0  0  0  0  0  0  0  0
   -0.4738   -1.5415   -1.8397 N   0  0  0  0  0  0  0  0  0  0  0  0
   -0.5327   -2.2351   -2.7206 N   0  0  0  0  0  0  0  0  0  0  0  0
   -0.5919   -3.0856   -3.8079 C   0  0  0  0  0  0  0  0  0  0  0  0
   -1.8203   -3.2837   -4.4705 C   0  0  0  0  0  0  0  0  0  0  0  0
    0.6141   -3.7139   -4.1881 C   0  0  0  0  0  0  0  0  0  0  0  0
   -1.8196   -4.1534   -5.5536 C   0  0  0  0  0  0  0  0  0  0  0  0
   -2.7384   -2.7927   -4.1600 H   0  0  0  0  0  0  0  0  0  0  0  0
    0.5733   -4.5718   -5.2730 C   0  0  0  0  0  0  0  0  0  0  0  0
    1.5320   -3.5251   -3.6427 H   0  0  0  0  0  0  0  0  0  0  0  0
   -0.6360   -4.7926   -5.9530 C   0  0  0  0  0  0  0  0  0  0  0  0
   -2.7431   -4.3391   -6.0887 H   0  0  0  0  0  0  0  0  0  0  0  0
    1.4651   -5.0854   -5.6142 H   0  0  0  0  0  0  0  0  0  0  0  0
   -0.5968   -5.7435   -7.1204 C   0  0  0  0  0  0  0  0  0  0  0  0
    0.4150   -6.3048   -7.4721 O   0  0  0  0  0  0  0  0  0  0  0  0
   -1.7971   -5.8814   -7.7027 O   0  0  0  0  0  0  0  0  0  0  0  0
   -1.6996   -6.5052   -8.4434 H   0  0  0  0  0  0  0  0  0  0  0  0
   -5.3607   -1.3149   -3.5000 C   0  0  0  0  0  0  0  0  0  0  0  0
   -5.0063   -2.3711   -3.9986 O   0  0  0  0  0  0  0  0  0  0  0  0
   -6.5328   -0.7271   -3.7744 O   0  0  0  0  0  0  0  0  0  0  0  0
   -7.0026   -1.2870   -4.4167 H   0  0  0  0  0  0  0  0  0  0  0  0
  1  2  2  0  0  0  0
  2  3  1  0  0  0  0
  4  9  1  0  0  0  0
  4  3  2  0  0  0  0
  5  4  1  0  0  0  0
  6  5  2  0  0  0  0
  6  1  1  0  0  0  0
  7  1  1  0  0  0  0
  8  5  1  0  0  0  0
 11 10  1  0  0  0  0
 12 11  1  0  0  0  0
 13 16  1  0  0  0  0
 13 12  2  0  0  0  0
 14 12  1  0  0  0  0
 14 18  1  0  0  0  0
 15 13  1  0  0  0  0
 17 14  2  0  0  0  0
 19 15  2  0  0  0  0
 19 17  1  0  0  0  0
 20 15  1  0  0  0  0
 21 17  1  0  0  0  0
 22 19  1  0  0  0  0
 23 22  2  0  0  0  0
 24 22  1  0  0  0  0
 25 24  1  0  0  0  0
 26  6  1  0  0  0  0
 27 26  2  0  0  0  0
 28 26  1  0  0  0  0
 29 28  1  0  0  0  0
M  RAD  4   2   2   3   2  10   3  11   2
M  END
