Coordinates from ORCA-job 1g-Schema5-R8-G+-B3LYPG-6-31G_dp-scan-d49-09-n400
 OpenBabel08281819463D

 29 29  0  0  0  0  0  0  0  0999 V2000
   -3.4942   -0.7799   -1.0660 C   0  0  0  0  0  0  0  0  0  0  0  0
   -3.3754   -0.0809    0.1162 C   0  0  0  0  0  0  0  0  0  0  0  0
   -3.9550    0.9991    0.3678 C   0  0  0  0  0  0  0  0  0  0  0  0
   -4.8044    1.7505   -0.4192 C   0  0  0  0  0  0  0  0  0  0  0  0
   -4.9831    1.1150   -1.6657 C   0  0  0  0  0  0  0  0  0  0  0  0
   -4.3430   -0.1050   -1.9880 C   0  0  0  0  0  0  0  0  0  0  0  0
   -3.0514   -1.7383   -1.3096 H   0  0  0  0  0  0  0  0  0  0  0  0
   -5.6311    1.5780   -2.4031 H   0  0  0  0  0  0  0  0  0  0  0  0
   -5.2904    2.6844   -0.1641 H   0  0  0  0  0  0  0  0  0  0  0  0
   -1.0297   -1.1420   -3.1106 N   0  0  0  0  0  0  0  0  0  0  0  0
   -0.9143   -2.0166   -3.7912 N   0  0  0  0  0  0  0  0  0  0  0  0
   -0.7971   -3.1036   -4.6309 C   0  0  0  0  0  0  0  0  0  0  0  0
   -1.9761   -3.6306   -5.1943 C   0  0  0  0  0  0  0  0  0  0  0  0
    0.4961   -3.6158   -4.8664 C   0  0  0  0  0  0  0  0  0  0  0  0
   -1.8316   -4.7275   -6.0333 C   0  0  0  0  0  0  0  0  0  0  0  0
   -2.9336   -3.1753   -4.9652 H   0  0  0  0  0  0  0  0  0  0  0  0
    0.5950   -4.7097   -5.7081 C   0  0  0  0  0  0  0  0  0  0  0  0
    1.3679   -3.1671   -4.4040 H   0  0  0  0  0  0  0  0  0  0  0  0
   -0.5595   -5.2635   -6.2878 C   0  0  0  0  0  0  0  0  0  0  0  0
   -2.7045   -5.1744   -6.4935 H   0  0  0  0  0  0  0  0  0  0  0  0
    1.5569   -5.1565   -5.9340 H   0  0  0  0  0  0  0  0  0  0  0  0
   -0.3627   -6.4547   -7.1894 C   0  0  0  0  0  0  0  0  0  0  0  0
    0.7259   -6.9309   -7.4130 O   0  0  0  0  0  0  0  0  0  0  0  0
   -1.5210   -6.9041   -7.6941 O   0  0  0  0  0  0  0  0  0  0  0  0
   -1.3238   -7.6717   -8.2591 H   0  0  0  0  0  0  0  0  0  0  0  0
   -4.5117   -0.7226   -3.3233 C   0  0  0  0  0  0  0  0  0  0  0  0
   -3.7786   -1.6025   -3.7691 O   0  0  0  0  0  0  0  0  0  0  0  0
   -5.5404   -0.2315   -4.0274 O   0  0  0  0  0  0  0  0  0  0  0  0
   -5.5610   -0.6879   -4.8849 H   0  0  0  0  0  0  0  0  0  0  0  0
  1  2  2  0  0  0  0
  2  3  1  0  0  0  0
  4  9  1  0  0  0  0
  4  3  2  0  0  0  0
  5  4  1  0  0  0  0
  6  5  2  0  0  0  0
  6  1  1  0  0  0  0
  7  1  1  0  0  0  0
  8  5  1  0  0  0  0
 11 10  1  0  0  0  0
 12 11  1  0  0  0  0
 13 16  1  0  0  0  0
 13 12  2  0  0  0  0
 14 12  1  0  0  0  0
 14 18  1  0  0  0  0
 15 13  1  0  0  0  0
 17 14  2  0  0  0  0
 19 15  2  0  0  0  0
 19 17  1  0  0  0  0
 20 15  1  0  0  0  0
 21 17  1  0  0  0  0
 22 19  1  0  0  0  0
 23 22  2  0  0  0  0
 24 22  1  0  0  0  0
 25 24  1  0  0  0  0
 26  6  1  0  0  0  0
 27 26  2  0  0  0  0
 28 26  1  0  0  0  0
 29 28  1  0  0  0  0
M  RAD  4   2   2   3   2  10   3  11   2
M  END
