Coordinates from ORCA-job 1g-Schema5-R8-G+-B3LYPG-6-31G_dp-scan-d49-09-n400
 OpenBabel08281819463D

 29 29  0  0  0  0  0  0  0  0999 V2000
   -3.4726   -0.7189   -1.0388 C   0  0  0  0  0  0  0  0  0  0  0  0
   -3.3773    0.0017    0.1326 C   0  0  0  0  0  0  0  0  0  0  0  0
   -3.9915    1.0661    0.3685 C   0  0  0  0  0  0  0  0  0  0  0  0
   -4.8635    1.7778   -0.4307 C   0  0  0  0  0  0  0  0  0  0  0  0
   -5.0204    1.1181   -1.6677 C   0  0  0  0  0  0  0  0  0  0  0  0
   -4.3412   -0.0855   -1.9715 C   0  0  0  0  0  0  0  0  0  0  0  0
   -2.9964   -1.6652   -1.2673 H   0  0  0  0  0  0  0  0  0  0  0  0
   -5.6816    1.5492   -2.4125 H   0  0  0  0  0  0  0  0  0  0  0  0
   -5.3791    2.6997   -0.1906 H   0  0  0  0  0  0  0  0  0  0  0  0
   -1.0125   -1.1945   -3.0716 N   0  0  0  0  0  0  0  0  0  0  0  0
   -0.8874   -2.0581   -3.7641 N   0  0  0  0  0  0  0  0  0  0  0  0
   -0.7776   -3.1330   -4.6201 C   0  0  0  0  0  0  0  0  0  0  0  0
   -1.9614   -3.6415   -5.1904 C   0  0  0  0  0  0  0  0  0  0  0  0
    0.5107   -3.6528   -4.8635 C   0  0  0  0  0  0  0  0  0  0  0  0
   -1.8268   -4.7278   -6.0446 C   0  0  0  0  0  0  0  0  0  0  0  0
   -2.9150   -3.1807   -4.9550 H   0  0  0  0  0  0  0  0  0  0  0  0
    0.6001   -4.7355   -5.7208 C   0  0  0  0  0  0  0  0  0  0  0  0
    1.3866   -3.2183   -4.3952 H   0  0  0  0  0  0  0  0  0  0  0  0
   -0.5594   -5.2711   -6.3075 C   0  0  0  0  0  0  0  0  0  0  0  0
   -2.7036   -5.1607   -6.5105 H   0  0  0  0  0  0  0  0  0  0  0  0
    1.5580   -5.1872   -5.9537 H   0  0  0  0  0  0  0  0  0  0  0  0
   -0.3734   -6.4508   -7.2263 C   0  0  0  0  0  0  0  0  0  0  0  0
    0.7108   -6.9328   -7.4582 O   0  0  0  0  0  0  0  0  0  0  0  0
   -1.5361   -6.8833   -7.7359 O   0  0  0  0  0  0  0  0  0  0  0  0
   -1.3458   -7.6440   -8.3125 H   0  0  0  0  0  0  0  0  0  0  0  0
   -4.4881   -0.7268   -3.2978 C   0  0  0  0  0  0  0  0  0  0  0  0
   -3.7288   -1.5924   -3.7290 O   0  0  0  0  0  0  0  0  0  0  0  0
   -5.5274   -0.2751   -4.0124 O   0  0  0  0  0  0  0  0  0  0  0  0
   -5.5312   -0.7424   -4.8642 H   0  0  0  0  0  0  0  0  0  0  0  0
  1  2  2  0  0  0  0
  2  3  1  0  0  0  0
  4  9  1  0  0  0  0
  4  3  2  0  0  0  0
  5  4  1  0  0  0  0
  6  5  2  0  0  0  0
  6  1  1  0  0  0  0
  7  1  1  0  0  0  0
  8  5  1  0  0  0  0
 11 10  1  0  0  0  0
 12 11  1  0  0  0  0
 13 16  1  0  0  0  0
 13 12  2  0  0  0  0
 14 12  1  0  0  0  0
 14 18  1  0  0  0  0
 15 13  1  0  0  0  0
 17 14  2  0  0  0  0
 19 15  2  0  0  0  0
 19 17  1  0  0  0  0
 20 15  1  0  0  0  0
 21 17  1  0  0  0  0
 22 19  1  0  0  0  0
 23 22  2  0  0  0  0
 24 22  1  0  0  0  0
 25 24  1  0  0  0  0
 26  6  1  0  0  0  0
 27 26  2  0  0  0  0
 28 26  1  0  0  0  0
 29 28  1  0  0  0  0
M  RAD  4   2   2   3   2  10   3  11   2
M  END
