Coordinates from ORCA-job 1g-Schema5-R8-G+-B3LYPG-6-31G_dp-scan-d49-09-n400
 OpenBabel08281819463D

 29 29  0  0  0  0  0  0  0  0999 V2000
   -3.5595   -1.2972   -1.7481 C   0  0  0  0  0  0  0  0  0  0  0  0
   -2.8615   -0.5523   -0.8080 C   0  0  0  0  0  0  0  0  0  0  0  0
   -3.0869    0.6687   -0.6286 C   0  0  0  0  0  0  0  0  0  0  0  0
   -3.9472    1.5498   -1.2414 C   0  0  0  0  0  0  0  0  0  0  0  0
   -4.6779    0.8580   -2.2346 C   0  0  0  0  0  0  0  0  0  0  0  0
   -4.4791   -0.5161   -2.4942 C   0  0  0  0  0  0  0  0  0  0  0  0
   -3.4648   -2.3626   -1.9327 H   0  0  0  0  0  0  0  0  0  0  0  0
   -5.4199    1.4007   -2.8115 H   0  0  0  0  0  0  0  0  0  0  0  0
   -4.0988    2.5994   -1.0215 H   0  0  0  0  0  0  0  0  0  0  0  0
   -0.4963   -1.3161   -2.1291 N   0  0  0  0  0  0  0  0  0  0  0  0
   -0.5324   -2.0670   -2.9567 N   0  0  0  0  0  0  0  0  0  0  0  0
   -0.5822   -2.9999   -3.9719 C   0  0  0  0  0  0  0  0  0  0  0  0
   -1.8341   -3.3075   -4.5413 C   0  0  0  0  0  0  0  0  0  0  0  0
    0.6382   -3.5876   -4.3711 C   0  0  0  0  0  0  0  0  0  0  0  0
   -1.8425   -4.2563   -5.5560 C   0  0  0  0  0  0  0  0  0  0  0  0
   -2.7576   -2.8333   -4.2128 H   0  0  0  0  0  0  0  0  0  0  0  0
    0.5839   -4.5273   -5.3847 C   0  0  0  0  0  0  0  0  0  0  0  0
    1.5723   -3.3093   -3.8964 H   0  0  0  0  0  0  0  0  0  0  0  0
   -0.6478   -4.8619   -5.9741 C   0  0  0  0  0  0  0  0  0  0  0  0
   -2.7812   -4.5280   -6.0235 H   0  0  0  0  0  0  0  0  0  0  0  0
    1.4823   -5.0194   -5.7401 H   0  0  0  0  0  0  0  0  0  0  0  0
   -0.6178   -5.8965   -7.0689 C   0  0  0  0  0  0  0  0  0  0  0  0
    0.4049   -6.4243   -7.4399 O   0  0  0  0  0  0  0  0  0  0  0  0
   -1.8391   -6.1468   -7.5622 O   0  0  0  0  0  0  0  0  0  0  0  0
   -1.7484   -6.8198   -8.2596 H   0  0  0  0  0  0  0  0  0  0  0  0
   -5.1862   -1.2068   -3.6086 C   0  0  0  0  0  0  0  0  0  0  0  0
   -4.7922   -2.2480   -4.1148 O   0  0  0  0  0  0  0  0  0  0  0  0
   -6.2911   -0.5726   -4.0222 O   0  0  0  0  0  0  0  0  0  0  0  0
   -6.6693   -1.0858   -4.7570 H   0  0  0  0  0  0  0  0  0  0  0  0
  1  2  2  0  0  0  0
  2  3  1  0  0  0  0
  4  9  1  0  0  0  0
  4  3  2  0  0  0  0
  5  4  1  0  0  0  0
  6  5  2  0  0  0  0
  6  1  1  0  0  0  0
  7  1  1  0  0  0  0
  8  5  1  0  0  0  0
 11 10  1  0  0  0  0
 12 11  1  0  0  0  0
 13 16  1  0  0  0  0
 13 12  2  0  0  0  0
 14 12  1  0  0  0  0
 14 18  1  0  0  0  0
 15 13  1  0  0  0  0
 17 14  2  0  0  0  0
 19 15  2  0  0  0  0
 19 17  1  0  0  0  0
 20 15  1  0  0  0  0
 21 17  1  0  0  0  0
 22 19  1  0  0  0  0
 23 22  2  0  0  0  0
 24 22  1  0  0  0  0
 25 24  1  0  0  0  0
 26  6  1  0  0  0  0
 27 26  2  0  0  0  0
 28 26  1  0  0  0  0
 29 28  1  0  0  0  0
M  RAD  4   2   2   3   2  10   3  11   2
M  END
