Coordinates from ORCA-job 1g-Schema5-R8-G+-B3LYPG-6-31G_dp-scan-d49-09-n400
 OpenBabel08281819463D

 29 29  0  0  0  0  0  0  0  0999 V2000
   -3.6375   -1.2378   -1.4202 C   0  0  0  0  0  0  0  0  0  0  0  0
   -3.1704   -0.6831   -0.2452 C   0  0  0  0  0  0  0  0  0  0  0  0
   -3.3939    0.4930    0.1194 C   0  0  0  0  0  0  0  0  0  0  0  0
   -4.0955    1.5011   -0.5098 C   0  0  0  0  0  0  0  0  0  0  0  0
   -4.6011    1.0288   -1.7410 C   0  0  0  0  0  0  0  0  0  0  0  0
   -4.3707   -0.2904   -2.1920 C   0  0  0  0  0  0  0  0  0  0  0  0
   -3.5233   -2.2628   -1.7557 H   0  0  0  0  0  0  0  0  0  0  0  0
   -5.1865    1.7000   -2.3613 H   0  0  0  0  0  0  0  0  0  0  0  0
   -4.2740    2.5078   -0.1519 H   0  0  0  0  0  0  0  0  0  0  0  0
   -1.3672   -0.9152   -3.1256 N   0  0  0  0  0  0  0  0  0  0  0  0
   -1.2263   -1.8067   -3.7832 N   0  0  0  0  0  0  0  0  0  0  0  0
   -1.0132   -2.9204   -4.5699 C   0  0  0  0  0  0  0  0  0  0  0  0
   -2.1279   -3.5607   -5.1445 C   0  0  0  0  0  0  0  0  0  0  0  0
    0.3222   -3.3470   -4.7375 C   0  0  0  0  0  0  0  0  0  0  0  0
   -1.8736   -4.6853   -5.9191 C   0  0  0  0  0  0  0  0  0  0  0  0
   -3.1253   -3.1678   -4.9792 H   0  0  0  0  0  0  0  0  0  0  0  0
    0.5308   -4.4724   -5.5147 C   0  0  0  0  0  0  0  0  0  0  0  0
    1.1419   -2.8122   -4.2715 H   0  0  0  0  0  0  0  0  0  0  0  0
   -0.5584   -5.1396   -6.1015 C   0  0  0  0  0  0  0  0  0  0  0  0
   -2.6952   -5.2164   -6.3843 H   0  0  0  0  0  0  0  0  0  0  0  0
    1.5303   -4.8579   -5.6836 H   0  0  0  0  0  0  0  0  0  0  0  0
   -0.2430   -6.3588   -6.9282 C   0  0  0  0  0  0  0  0  0  0  0  0
    0.8851   -6.7630   -7.0907 O   0  0  0  0  0  0  0  0  0  0  0  0
   -1.3461   -6.9220   -7.4424 O   0  0  0  0  0  0  0  0  0  0  0  0
   -1.0719   -7.7021   -7.9558 H   0  0  0  0  0  0  0  0  0  0  0  0
   -4.8307   -0.7353   -3.5320 C   0  0  0  0  0  0  0  0  0  0  0  0
   -4.3282   -1.6734   -4.1393 O   0  0  0  0  0  0  0  0  0  0  0  0
   -5.8330   -0.0052   -4.0360 O   0  0  0  0  0  0  0  0  0  0  0  0
   -6.0491   -0.3613   -4.9148 H   0  0  0  0  0  0  0  0  0  0  0  0
  1  2  2  0  0  0  0
  2  3  1  0  0  0  0
  4  9  1  0  0  0  0
  4  3  2  0  0  0  0
  5  4  1  0  0  0  0
  6  5  2  0  0  0  0
  6  1  1  0  0  0  0
  7  1  1  0  0  0  0
  8  5  1  0  0  0  0
 11 10  1  0  0  0  0
 12 11  1  0  0  0  0
 13 16  1  0  0  0  0
 13 12  2  0  0  0  0
 14 12  1  0  0  0  0
 14 18  1  0  0  0  0
 15 13  1  0  0  0  0
 17 14  2  0  0  0  0
 19 15  2  0  0  0  0
 19 17  1  0  0  0  0
 20 15  1  0  0  0  0
 21 17  1  0  0  0  0
 22 19  1  0  0  0  0
 23 22  2  0  0  0  0
 24 22  1  0  0  0  0
 25 24  1  0  0  0  0
 26  6  1  0  0  0  0
 27 26  2  0  0  0  0
 28 26  1  0  0  0  0
 29 28  1  0  0  0  0
M  RAD  4   2   2   3   2  10   3  11   2
M  END
