Coordinates from ORCA-job 1g-Schema5-R8-G+-B3LYPG-6-31G_dp-scan-d49-09-n400
 OpenBabel08281819463D

 29 29  0  0  0  0  0  0  0  0999 V2000
   -3.6287   -1.2267   -1.4133 C   0  0  0  0  0  0  0  0  0  0  0  0
   -3.1827   -0.6755   -0.2285 C   0  0  0  0  0  0  0  0  0  0  0  0
   -3.4245    0.4950    0.1422 C   0  0  0  0  0  0  0  0  0  0  0  0
   -4.1319    1.4990   -0.4872 C   0  0  0  0  0  0  0  0  0  0  0  0
   -4.6179    1.0297   -1.7273 C   0  0  0  0  0  0  0  0  0  0  0  0
   -4.3661   -0.2832   -2.1856 C   0  0  0  0  0  0  0  0  0  0  0  0
   -3.4985   -2.2478   -1.7545 H   0  0  0  0  0  0  0  0  0  0  0  0
   -5.2048    1.6984   -2.3490 H   0  0  0  0  0  0  0  0  0  0  0  0
   -4.3267    2.5007   -0.1240 H   0  0  0  0  0  0  0  0  0  0  0  0
   -1.3538   -0.9051   -3.1524 N   0  0  0  0  0  0  0  0  0  0  0  0
   -1.2152   -1.8008   -3.8045 N   0  0  0  0  0  0  0  0  0  0  0  0
   -1.0050   -2.9192   -4.5851 C   0  0  0  0  0  0  0  0  0  0  0  0
   -2.1226   -3.5607   -5.1526 C   0  0  0  0  0  0  0  0  0  0  0  0
    0.3293   -3.3486   -4.7543 C   0  0  0  0  0  0  0  0  0  0  0  0
   -1.8727   -4.6901   -5.9217 C   0  0  0  0  0  0  0  0  0  0  0  0
   -3.1182   -3.1644   -4.9852 H   0  0  0  0  0  0  0  0  0  0  0  0
    0.5334   -4.4786   -5.5260 C   0  0  0  0  0  0  0  0  0  0  0  0
    1.1514   -2.8127   -4.2937 H   0  0  0  0  0  0  0  0  0  0  0  0
   -0.5588   -5.1473   -6.1056 C   0  0  0  0  0  0  0  0  0  0  0  0
   -2.6967   -5.2225   -6.3813 H   0  0  0  0  0  0  0  0  0  0  0  0
    1.5317   -4.8668   -5.6960 H   0  0  0  0  0  0  0  0  0  0  0  0
   -0.2478   -6.3716   -6.9266 C   0  0  0  0  0  0  0  0  0  0  0  0
    0.8791   -6.7785   -7.0899 O   0  0  0  0  0  0  0  0  0  0  0  0
   -1.3534   -6.9364   -7.4334 O   0  0  0  0  0  0  0  0  0  0  0  0
   -1.0823   -7.7201   -7.9429 H   0  0  0  0  0  0  0  0  0  0  0  0
   -4.8125   -0.7253   -3.5309 C   0  0  0  0  0  0  0  0  0  0  0  0
   -4.3052   -1.6620   -4.1367 O   0  0  0  0  0  0  0  0  0  0  0  0
   -5.8110    0.0053   -4.0424 O   0  0  0  0  0  0  0  0  0  0  0  0
   -6.0196   -0.3502   -4.9232 H   0  0  0  0  0  0  0  0  0  0  0  0
  1  2  2  0  0  0  0
  2  3  1  0  0  0  0
  4  9  1  0  0  0  0
  4  3  2  0  0  0  0
  5  4  1  0  0  0  0
  6  5  2  0  0  0  0
  6  1  1  0  0  0  0
  7  1  1  0  0  0  0
  8  5  1  0  0  0  0
 11 10  1  0  0  0  0
 12 11  1  0  0  0  0
 13 16  1  0  0  0  0
 13 12  2  0  0  0  0
 14 12  1  0  0  0  0
 14 18  1  0  0  0  0
 15 13  1  0  0  0  0
 17 14  2  0  0  0  0
 19 15  2  0  0  0  0
 19 17  1  0  0  0  0
 20 15  1  0  0  0  0
 21 17  1  0  0  0  0
 22 19  1  0  0  0  0
 23 22  2  0  0  0  0
 24 22  1  0  0  0  0
 25 24  1  0  0  0  0
 26  6  1  0  0  0  0
 27 26  2  0  0  0  0
 28 26  1  0  0  0  0
 29 28  1  0  0  0  0
M  RAD  4   2   2   3   2  10   3  11   2
M  END
