Coordinates from ORCA-job 1g-Schema5-R8-G+-B3LYPG-6-31G_dp-scan-d49-09-n400
 OpenBabel08281819463D

 29 29  0  0  0  0  0  0  0  0999 V2000
   -3.4601   -1.1730   -2.1891 C   0  0  0  0  0  0  0  0  0  0  0  0
   -2.4714   -0.4329   -1.5436 C   0  0  0  0  0  0  0  0  0  0  0  0
   -2.7289    0.7742   -1.2758 C   0  0  0  0  0  0  0  0  0  0  0  0
   -3.7729    1.6282   -1.5026 C   0  0  0  0  0  0  0  0  0  0  0  0
   -4.7803    0.9069   -2.1889 C   0  0  0  0  0  0  0  0  0  0  0  0
   -4.6204   -0.4504   -2.5365 C   0  0  0  0  0  0  0  0  0  0  0  0
   -3.3909   -2.2276   -2.4348 H   0  0  0  0  0  0  0  0  0  0  0  0
   -5.6991    1.4216   -2.4518 H   0  0  0  0  0  0  0  0  0  0  0  0
   -3.8728    2.6674   -1.2167 H   0  0  0  0  0  0  0  0  0  0  0  0
   -0.5536   -1.5918   -1.8632 N   0  0  0  0  0  0  0  0  0  0  0  0
   -0.5745   -2.2997   -2.7418 N   0  0  0  0  0  0  0  0  0  0  0  0
   -0.5836   -3.1514   -3.8298 C   0  0  0  0  0  0  0  0  0  0  0  0
   -1.7663   -3.3323   -4.5754 C   0  0  0  0  0  0  0  0  0  0  0  0
    0.6297   -3.8058   -4.1327 C   0  0  0  0  0  0  0  0  0  0  0  0
   -1.7149   -4.2043   -5.6544 C   0  0  0  0  0  0  0  0  0  0  0  0
   -2.6868   -2.8218   -4.3174 H   0  0  0  0  0  0  0  0  0  0  0  0
    0.6457   -4.6646   -5.2184 C   0  0  0  0  0  0  0  0  0  0  0  0
    1.5134   -3.6337   -3.5283 H   0  0  0  0  0  0  0  0  0  0  0  0
   -0.5193   -4.8656   -5.9759 C   0  0  0  0  0  0  0  0  0  0  0  0
   -2.6038   -4.3763   -6.2496 H   0  0  0  0  0  0  0  0  0  0  0  0
    1.5488   -5.1948   -5.4995 H   0  0  0  0  0  0  0  0  0  0  0  0
   -0.4228   -5.8191   -7.1372 C   0  0  0  0  0  0  0  0  0  0  0  0
    0.5986   -6.3996   -7.4240 O   0  0  0  0  0  0  0  0  0  0  0  0
   -1.5861   -5.9360   -7.7952 O   0  0  0  0  0  0  0  0  0  0  0  0
   -1.4526   -6.5624   -8.5280 H   0  0  0  0  0  0  0  0  0  0  0  0
   -5.6259   -1.1935   -3.3560 C   0  0  0  0  0  0  0  0  0  0  0  0
   -5.3814   -2.2531   -3.9032 O   0  0  0  0  0  0  0  0  0  0  0  0
   -6.8087   -0.5663   -3.4407 O   0  0  0  0  0  0  0  0  0  0  0  0
   -7.3909   -1.1081   -4.0010 H   0  0  0  0  0  0  0  0  0  0  0  0
  1  2  1  0  0  0  0
  2  3  2  0  0  0  0
  4  3  1  0  0  0  0
  4  9  1  0  0  0  0
  5  4  2  0  0  0  0
  6  1  2  0  0  0  0
  6  5  1  0  0  0  0
  7  1  1  0  0  0  0
  8  5  1  0  0  0  0
 11 10  1  0  0  0  0
 12 11  1  0  0  0  0
 13 16  1  0  0  0  0
 13 12  2  0  0  0  0
 14 12  1  0  0  0  0
 14 18  1  0  0  0  0
 15 13  1  0  0  0  0
 17 14  2  0  0  0  0
 19 15  2  0  0  0  0
 19 17  1  0  0  0  0
 20 15  1  0  0  0  0
 21 17  1  0  0  0  0
 22 19  1  0  0  0  0
 23 22  2  0  0  0  0
 24 22  1  0  0  0  0
 25 24  1  0  0  0  0
 26  6  1  0  0  0  0
 27 26  2  0  0  0  0
 28 26  1  0  0  0  0
 29 28  1  0  0  0  0
M  RAD  4   2   2   3   2  10   3  11   2
M  END
