Coordinates from ORCA-job 1g-Schema5-R8-G+-B3LYPG-6-31G_dp-scan-d49-09-n400
 OpenBabel08281819463D

 29 29  0  0  0  0  0  0  0  0999 V2000
   -3.7534   -1.4531   -1.5983 C   0  0  0  0  0  0  0  0  0  0  0  0
   -3.0889   -0.9118   -0.5125 C   0  0  0  0  0  0  0  0  0  0  0  0
   -3.1157    0.3006   -0.2015 C   0  0  0  0  0  0  0  0  0  0  0  0
   -3.7336    1.3651   -0.8228 C   0  0  0  0  0  0  0  0  0  0  0  0
   -4.4281    0.9070   -1.9659 C   0  0  0  0  0  0  0  0  0  0  0  0
   -4.4278   -0.4517   -2.3528 C   0  0  0  0  0  0  0  0  0  0  0  0
   -3.8018   -2.4976   -1.8882 H   0  0  0  0  0  0  0  0  0  0  0  0
   -4.9841    1.6217   -2.5643 H   0  0  0  0  0  0  0  0  0  0  0  0
   -3.7369    2.4036   -0.5136 H   0  0  0  0  0  0  0  0  0  0  0  0
   -1.3086   -0.9049   -2.8207 N   0  0  0  0  0  0  0  0  0  0  0  0
   -1.1049   -1.7556   -3.5174 N   0  0  0  0  0  0  0  0  0  0  0  0
   -0.9246   -2.8372   -4.3542 C   0  0  0  0  0  0  0  0  0  0  0  0
   -2.0756   -3.4235   -4.9180 C   0  0  0  0  0  0  0  0  0  0  0  0
    0.3926   -3.2853   -4.5856 C   0  0  0  0  0  0  0  0  0  0  0  0
   -1.8751   -4.5186   -5.7488 C   0  0  0  0  0  0  0  0  0  0  0  0
   -3.0646   -3.0201   -4.7080 H   0  0  0  0  0  0  0  0  0  0  0  0
    0.5465   -4.3803   -5.4176 C   0  0  0  0  0  0  0  0  0  0  0  0
    1.2401   -2.7908   -4.1250 H   0  0  0  0  0  0  0  0  0  0  0  0
   -0.5781   -4.9948   -5.9952 C   0  0  0  0  0  0  0  0  0  0  0  0
   -2.7253   -5.0079   -6.2085 H   0  0  0  0  0  0  0  0  0  0  0  0
    1.5295   -4.7816   -5.6380 H   0  0  0  0  0  0  0  0  0  0  0  0
   -0.3210   -6.1825   -6.8858 C   0  0  0  0  0  0  0  0  0  0  0  0
    0.7902   -6.6066   -7.1037 O   0  0  0  0  0  0  0  0  0  0  0  0
   -1.4547   -6.6957   -7.3855 O   0  0  0  0  0  0  0  0  0  0  0  0
   -1.2180   -7.4582   -7.9421 H   0  0  0  0  0  0  0  0  0  0  0  0
   -5.0881   -0.8969   -3.6110 C   0  0  0  0  0  0  0  0  0  0  0  0
   -4.7836   -1.9210   -4.2060 O   0  0  0  0  0  0  0  0  0  0  0  0
   -6.0388   -0.0610   -4.0471 O   0  0  0  0  0  0  0  0  0  0  0  0
   -6.3994   -0.4272   -4.8731 H   0  0  0  0  0  0  0  0  0  0  0  0
  1  2  2  0  0  0  0
  2  3  1  0  0  0  0
  4  9  1  0  0  0  0
  4  3  2  0  0  0  0
  5  4  1  0  0  0  0
  6  5  2  0  0  0  0
  6  1  1  0  0  0  0
  7  1  1  0  0  0  0
  8  5  1  0  0  0  0
 11 10  1  0  0  0  0
 12 11  1  0  0  0  0
 13 16  1  0  0  0  0
 13 12  2  0  0  0  0
 14 12  1  0  0  0  0
 14 18  1  0  0  0  0
 15 13  1  0  0  0  0
 17 14  2  0  0  0  0
 19 15  2  0  0  0  0
 19 17  1  0  0  0  0
 20 15  1  0  0  0  0
 21 17  1  0  0  0  0
 22 19  1  0  0  0  0
 23 22  2  0  0  0  0
 24 22  1  0  0  0  0
 25 24  1  0  0  0  0
 26  6  1  0  0  0  0
 27 26  2  0  0  0  0
 28 26  1  0  0  0  0
 29 28  1  0  0  0  0
M  RAD  4   2   2   3   2  10   3  11   2
M  END
