Coordinates from ORCA-job 1g-Schema5-R8-G+-B3LYPG-6-31G_dp-scan-d49-09-n400
 OpenBabel08281819463D

 29 31  0  0  1  0  0  0  0  0999 V2000
   -4.1422   -1.7793   -1.6741 C   0  0  0  0  0  0  0  0  0  0  0  0
   -3.4035   -2.7187   -2.3443 C   0  0  0  0  0  0  0  0  0  0  0  0
   -3.0608   -2.7143   -3.6702 C   0  0  0  0  0  0  0  0  0  0  0  0
   -3.4926   -1.6151   -4.4243 C   0  0  0  0  0  0  0  0  0  0  0  0
   -4.2373   -0.6067   -3.8035 C   0  0  0  0  0  0  0  0  0  0  0  0
   -4.5667   -0.6814   -2.4447 C   0  0  0  0  0  0  0  0  0  0  0  0
   -4.3906   -1.8421   -0.6202 H   0  0  0  0  0  0  0  0  0  0  0  0
   -4.5631    0.2507   -4.3814 H   0  0  0  0  0  0  0  0  0  0  0  0
   -3.2593   -1.5447   -5.4824 H   0  0  0  0  0  0  0  0  0  0  0  0
   -2.7569   -4.2649   -1.4438 N   0  0  0  0  0  0  0  0  0  0  0  0
   -1.7971   -4.6584   -2.0590 N   0  0  0  0  0  0  0  0  0  0  0  0
   -1.2805   -4.2974   -3.2693 C   0  0  0  0  0  0  0  0  0  0  0  0
   -2.2851   -3.9390   -4.3117 C   0  0  2  0  0  0  0  0  0  0  0  0
    0.0942   -4.2153   -3.4734 C   0  0  0  0  0  0  0  0  0  0  0  0
   -1.6903   -3.6735   -5.6441 C   0  0  0  0  0  0  0  0  0  0  0  0
   -3.0464   -4.7264   -4.4255 H   0  0  0  0  0  0  0  0  0  0  0  0
    0.5506   -3.8320   -4.7257 C   0  0  0  0  0  0  0  0  0  0  0  0
    0.7785   -4.4295   -2.6595 H   0  0  0  0  0  0  0  0  0  0  0  0
   -0.3400   -3.5923   -5.8198 C   0  0  0  0  0  0  0  0  0  0  0  0
   -2.3547   -3.5889   -6.4978 H   0  0  0  0  0  0  0  0  0  0  0  0
    1.6146   -3.7261   -4.9187 H   0  0  0  0  0  0  0  0  0  0  0  0
    0.2941   -3.2945   -7.1523 C   0  0  0  0  0  0  0  0  0  0  0  0
    1.4908   -3.2088   -7.2957 O   0  0  0  0  0  0  0  0  0  0  0  0
   -0.6187   -3.1360   -8.1217 O   0  0  0  0  0  0  0  0  0  0  0  0
   -0.1467   -2.9510   -8.9528 H   0  0  0  0  0  0  0  0  0  0  0  0
   -5.3584    0.3802   -1.7389 C   0  0  0  0  0  0  0  0  0  0  0  0
   -5.6405    0.3244   -0.5635 O   0  0  0  0  0  0  0  0  0  0  0  0
   -5.7095    1.3858   -2.5602 O   0  0  0  0  0  0  0  0  0  0  0  0
   -6.2140    2.0295   -2.0333 H   0  0  0  0  0  0  0  0  0  0  0  0
  1  7  1  0  0  0  0
  2  1  1  0  0  0  0
  2 10  1  0  0  0  0
  3  2  2  0  0  0  0
  4  5  2  0  0  0  0
  4  3  1  0  0  0  0
  5  6  1  0  0  0  0
  6 26  1  0  0  0  0
  6  1  2  0  0  0  0
  8  5  1  0  0  0  0
  9  4  1  0  0  0  0
 11 10  1  0  0  0  0
 12 11  1  0  0  0  0
 13 16  1  6  0  0  0
 13  3  1  0  0  0  0
 13 12  1  0  0  0  0
 14 12  2  0  0  0  0
 14 18  1  0  0  0  0
 15 13  1  0  0  0  0
 17 14  1  0  0  0  0
 19 15  2  0  0  0  0
 19 17  1  0  0  0  0
 20 15  1  0  0  0  0
 21 17  1  0  0  0  0
 22 19  1  0  0  0  0
 23 22  2  0  0  0  0
 24 22  1  0  0  0  0
 25 24  1  0  0  0  0
 26 27  2  0  0  0  0
 28 29  1  0  0  0  0
 28 26  1  0  0  0  0
M  RAD  3  10   2  11   2  17   2
M  END
