Coordinates from ORCA-job 1g-Schema5-R8-G+-B3LYPG-6-31G_dp-scan-d49-09-n400
 OpenBabel08281819463D

 29 29  0  0  0  0  0  0  0  0999 V2000
   -4.0728   -1.3361   -2.0812 C   0  0  0  0  0  0  0  0  0  0  0  0
   -2.8088   -0.8516   -2.4491 C   0  0  0  0  0  0  0  0  0  0  0  0
   -2.7400    0.3550   -2.8283 C   0  0  0  0  0  0  0  0  0  0  0  0
   -3.6066    1.3905   -3.0249 C   0  0  0  0  0  0  0  0  0  0  0  0
   -4.8932    0.9190   -2.6654 C   0  0  0  0  0  0  0  0  0  0  0  0
   -5.1191   -0.3975   -2.2135 C   0  0  0  0  0  0  0  0  0  0  0  0
   -4.2818   -2.3366   -1.7176 H   0  0  0  0  0  0  0  0  0  0  0  0
   -5.7294    1.6072   -2.7396 H   0  0  0  0  0  0  0  0  0  0  0  0
   -3.4080    2.3961   -3.3713 H   0  0  0  0  0  0  0  0  0  0  0  0
   -1.1271   -2.1210   -1.8051 N   0  0  0  0  0  0  0  0  0  0  0  0
   -0.7108   -2.8347   -2.5826 N   0  0  0  0  0  0  0  0  0  0  0  0
   -0.4871   -3.5001   -3.7759 C   0  0  0  0  0  0  0  0  0  0  0  0
   -1.2356   -3.1125   -4.9041 C   0  0  0  0  0  0  0  0  0  0  0  0
    0.4749   -4.5248   -3.7971 C   0  0  0  0  0  0  0  0  0  0  0  0
   -0.9985   -3.7863   -6.0933 C   0  0  0  0  0  0  0  0  0  0  0  0
   -1.9665   -2.3148   -4.8306 H   0  0  0  0  0  0  0  0  0  0  0  0
    0.6880   -5.1807   -5.0001 C   0  0  0  0  0  0  0  0  0  0  0  0
    1.0234   -4.7843   -2.8985 H   0  0  0  0  0  0  0  0  0  0  0  0
   -0.0418   -4.8144   -6.1413 C   0  0  0  0  0  0  0  0  0  0  0  0
   -1.5497   -3.5225   -6.9880 H   0  0  0  0  0  0  0  0  0  0  0  0
    1.4154   -5.9808   -5.0822 H   0  0  0  0  0  0  0  0  0  0  0  0
    0.2493   -5.5701   -7.4106 C   0  0  0  0  0  0  0  0  0  0  0  0
    1.0651   -6.4602   -7.4712 O   0  0  0  0  0  0  0  0  0  0  0  0
   -0.4951   -5.1365   -8.4405 O   0  0  0  0  0  0  0  0  0  0  0  0
   -0.2566   -5.6641   -9.2227 H   0  0  0  0  0  0  0  0  0  0  0  0
   -6.4910   -0.8764   -1.8422 C   0  0  0  0  0  0  0  0  0  0  0  0
   -6.7270   -2.0071   -1.4767 O   0  0  0  0  0  0  0  0  0  0  0  0
   -7.4258    0.0854   -1.9615 O   0  0  0  0  0  0  0  0  0  0  0  0
   -8.2758   -0.3060   -1.6963 H   0  0  0  0  0  0  0  0  0  0  0  0
  1  7  1  0  0  0  0
  2  1  2  0  0  0  0
  3  2  1  0  0  0  0
  4  3  2  0  0  0  0
  4  5  1  0  0  0  0
  5  6  2  0  0  0  0
  6  1  1  0  0  0  0
  6 26  1  0  0  0  0
  8  5  1  0  0  0  0
  9  4  1  0  0  0  0
 11 10  1  0  0  0  0
 12 11  1  0  0  0  0
 13 16  1  0  0  0  0
 13 12  2  0  0  0  0
 14 12  1  0  0  0  0
 14 18  1  0  0  0  0
 15 13  1  0  0  0  0
 17 14  2  0  0  0  0
 19 15  2  0  0  0  0
 19 17  1  0  0  0  0
 20 15  1  0  0  0  0
 21 17  1  0  0  0  0
 22 19  1  0  0  0  0
 23 22  2  0  0  0  0
 24 22  1  0  0  0  0
 25 24  1  0  0  0  0
 26 27  2  0  0  0  0
 28 26  1  0  0  0  0
 28 29  1  0  0  0  0
M  RAD  4   2   2   3   2  10   3  11   2
M  END
