Coordinates from ORCA-job 1g-Schema5-R8-G+-B3LYPG-6-31G_dp-scan-d49-09-n400
 OpenBabel08281819463D

 29 29  0  0  0  0  0  0  0  0999 V2000
   -3.7625   -1.4364   -1.5672 C   0  0  0  0  0  0  0  0  0  0  0  0
   -3.1174   -0.8990   -0.4682 C   0  0  0  0  0  0  0  0  0  0  0  0
   -3.1449    0.3125   -0.1551 C   0  0  0  0  0  0  0  0  0  0  0  0
   -3.7505    1.3799   -0.7844 C   0  0  0  0  0  0  0  0  0  0  0  0
   -4.4261    0.9266   -1.9402 C   0  0  0  0  0  0  0  0  0  0  0  0
   -4.4223   -0.4313   -2.3303 C   0  0  0  0  0  0  0  0  0  0  0  0
   -3.8079   -2.4800   -1.8607 H   0  0  0  0  0  0  0  0  0  0  0  0
   -4.9692    1.6442   -2.5470 H   0  0  0  0  0  0  0  0  0  0  0  0
   -3.7553    2.4179   -0.4735 H   0  0  0  0  0  0  0  0  0  0  0  0
   -1.3512   -0.9092   -2.8624 N   0  0  0  0  0  0  0  0  0  0  0  0
   -1.1480   -1.7642   -3.5540 N   0  0  0  0  0  0  0  0  0  0  0  0
   -0.9529   -2.8484   -4.3839 C   0  0  0  0  0  0  0  0  0  0  0  0
   -2.0942   -3.4568   -4.9436 C   0  0  0  0  0  0  0  0  0  0  0  0
    0.3713   -3.2780   -4.6117 C   0  0  0  0  0  0  0  0  0  0  0  0
   -1.8766   -4.5548   -5.7661 C   0  0  0  0  0  0  0  0  0  0  0  0
   -3.0878   -3.0655   -4.7355 H   0  0  0  0  0  0  0  0  0  0  0  0
    0.5425   -4.3766   -5.4355 C   0  0  0  0  0  0  0  0  0  0  0  0
    1.2109   -2.7672   -4.1545 H   0  0  0  0  0  0  0  0  0  0  0  0
   -0.5724   -5.0129   -6.0086 C   0  0  0  0  0  0  0  0  0  0  0  0
   -2.7189   -5.0610   -6.2222 H   0  0  0  0  0  0  0  0  0  0  0  0
    1.5316   -4.7643   -5.6525 H   0  0  0  0  0  0  0  0  0  0  0  0
   -0.2967   -6.2037   -6.8893 C   0  0  0  0  0  0  0  0  0  0  0  0
    0.8214   -6.6094   -7.1072 O   0  0  0  0  0  0  0  0  0  0  0  0
   -1.4219   -6.7371   -7.3870 O   0  0  0  0  0  0  0  0  0  0  0  0
   -1.1729   -7.4987   -7.9396 H   0  0  0  0  0  0  0  0  0  0  0  0
   -5.0605   -0.8707   -3.6014 C   0  0  0  0  0  0  0  0  0  0  0  0
   -4.7443   -1.8914   -4.1964 O   0  0  0  0  0  0  0  0  0  0  0  0
   -6.0047   -0.0340   -4.0497 O   0  0  0  0  0  0  0  0  0  0  0  0
   -6.3506   -0.3964   -4.8837 H   0  0  0  0  0  0  0  0  0  0  0  0
  1  2  2  0  0  0  0
  2  3  1  0  0  0  0
  4  9  1  0  0  0  0
  4  3  2  0  0  0  0
  5  4  1  0  0  0  0
  6  5  2  0  0  0  0
  6  1  1  0  0  0  0
  7  1  1  0  0  0  0
  8  5  1  0  0  0  0
 11 10  1  0  0  0  0
 12 11  1  0  0  0  0
 13 16  1  0  0  0  0
 13 12  2  0  0  0  0
 14 12  1  0  0  0  0
 14 18  1  0  0  0  0
 15 13  1  0  0  0  0
 17 14  2  0  0  0  0
 19 15  2  0  0  0  0
 19 17  1  0  0  0  0
 20 15  1  0  0  0  0
 21 17  1  0  0  0  0
 22 19  1  0  0  0  0
 23 22  2  0  0  0  0
 24 22  1  0  0  0  0
 25 24  1  0  0  0  0
 26  6  1  0  0  0  0
 27 26  2  0  0  0  0
 28 26  1  0  0  0  0
 29 28  1  0  0  0  0
M  RAD  4   2   2   3   2  10   3  11   2
M  END
