Coordinates from ORCA-job 1g-Schema5-R8-G+-B3LYPG-6-31G_dp-scan-d49-09-n400
 OpenBabel08281819463D

 29 29  0  0  0  0  0  0  0  0999 V2000
   -4.0644   -1.3421   -2.0773 C   0  0  0  0  0  0  0  0  0  0  0  0
   -2.7986   -0.8596   -2.4424 C   0  0  0  0  0  0  0  0  0  0  0  0
   -2.7300    0.3458   -2.8270 C   0  0  0  0  0  0  0  0  0  0  0  0
   -3.5959    1.3797   -3.0331 C   0  0  0  0  0  0  0  0  0  0  0  0
   -4.8838    0.9092   -2.6765 C   0  0  0  0  0  0  0  0  0  0  0  0
   -5.1107   -0.4052   -2.2190 C   0  0  0  0  0  0  0  0  0  0  0  0
   -4.2738   -2.3410   -1.7095 H   0  0  0  0  0  0  0  0  0  0  0  0
   -5.7198    1.5968   -2.7574 H   0  0  0  0  0  0  0  0  0  0  0  0
   -3.3963    2.3837   -3.3832 H   0  0  0  0  0  0  0  0  0  0  0  0
   -1.1336   -2.1167   -1.7992 N   0  0  0  0  0  0  0  0  0  0  0  0
   -0.7115   -2.8332   -2.5727 N   0  0  0  0  0  0  0  0  0  0  0  0
   -0.4911   -3.4957   -3.7686 C   0  0  0  0  0  0  0  0  0  0  0  0
   -1.2432   -3.1086   -4.8946 C   0  0  0  0  0  0  0  0  0  0  0  0
    0.4725   -4.5186   -3.7941 C   0  0  0  0  0  0  0  0  0  0  0  0
   -1.0082   -3.7807   -6.0852 C   0  0  0  0  0  0  0  0  0  0  0  0
   -1.9755   -2.3124   -4.8189 H   0  0  0  0  0  0  0  0  0  0  0  0
    0.6839   -5.1730   -4.9983 C   0  0  0  0  0  0  0  0  0  0  0  0
    1.0239   -4.7780   -2.8972 H   0  0  0  0  0  0  0  0  0  0  0  0
   -0.0497   -4.8068   -6.1371 C   0  0  0  0  0  0  0  0  0  0  0  0
   -1.5623   -3.5169   -6.9781 H   0  0  0  0  0  0  0  0  0  0  0  0
    1.4126   -5.9716   -5.0832 H   0  0  0  0  0  0  0  0  0  0  0  0
    0.2393   -5.5605   -7.4081 C   0  0  0  0  0  0  0  0  0  0  0  0
    1.0567   -6.4490   -7.4721 O   0  0  0  0  0  0  0  0  0  0  0  0
   -0.5089   -5.1274   -8.4355 O   0  0  0  0  0  0  0  0  0  0  0  0
   -0.2715   -5.6538   -9.2187 H   0  0  0  0  0  0  0  0  0  0  0  0
   -6.4839   -0.8833   -1.8510 C   0  0  0  0  0  0  0  0  0  0  0  0
   -6.7203   -2.0120   -1.4804 O   0  0  0  0  0  0  0  0  0  0  0  0
   -7.4185    0.0776   -1.9785 O   0  0  0  0  0  0  0  0  0  0  0  0
   -8.2695   -0.3125   -1.7144 H   0  0  0  0  0  0  0  0  0  0  0  0
  1  7  1  0  0  0  0
  2  1  2  0  0  0  0
  3  2  1  0  0  0  0
  4  3  2  0  0  0  0
  4  5  1  0  0  0  0
  5  6  2  0  0  0  0
  6  1  1  0  0  0  0
  6 26  1  0  0  0  0
  8  5  1  0  0  0  0
  9  4  1  0  0  0  0
 11 10  1  0  0  0  0
 12 11  1  0  0  0  0
 13 16  1  0  0  0  0
 13 12  2  0  0  0  0
 14 12  1  0  0  0  0
 14 18  1  0  0  0  0
 15 13  1  0  0  0  0
 17 14  2  0  0  0  0
 19 15  2  0  0  0  0
 19 17  1  0  0  0  0
 20 15  1  0  0  0  0
 21 17  1  0  0  0  0
 22 19  1  0  0  0  0
 23 22  2  0  0  0  0
 24 22  1  0  0  0  0
 25 24  1  0  0  0  0
 26 27  2  0  0  0  0
 28 26  1  0  0  0  0
 28 29  1  0  0  0  0
M  RAD  4   2   2   3   2  10   3  11   2
M  END
