Coordinates from ORCA-job 1g-Schema5-R8-G+-B3LYPG-6-31G_dp-scan-d49-09-n400
 OpenBabel08281819463D

 29 29  0  0  0  0  0  0  0  0999 V2000
   -3.4618   -0.6139   -0.9649 C   0  0  0  0  0  0  0  0  0  0  0  0
   -3.4631    0.1096    0.2078 C   0  0  0  0  0  0  0  0  0  0  0  0
   -4.1527    1.1322    0.4185 C   0  0  0  0  0  0  0  0  0  0  0  0
   -5.0380    1.7852   -0.4160 C   0  0  0  0  0  0  0  0  0  0  0  0
   -5.1035    1.1167   -1.6559 C   0  0  0  0  0  0  0  0  0  0  0  0
   -4.3363   -0.0409   -1.9304 C   0  0  0  0  0  0  0  0  0  0  0  0
   -2.9097   -1.5222   -1.1753 H   0  0  0  0  0  0  0  0  0  0  0  0
   -5.7615    1.5038   -2.4270 H   0  0  0  0  0  0  0  0  0  0  0  0
   -5.6203    2.6726   -0.1990 H   0  0  0  0  0  0  0  0  0  0  0  0
   -0.9213   -1.2336   -3.0817 N   0  0  0  0  0  0  0  0  0  0  0  0
   -0.7965   -2.0956   -3.7763 N   0  0  0  0  0  0  0  0  0  0  0  0
   -0.7133   -3.1672   -4.6391 C   0  0  0  0  0  0  0  0  0  0  0  0
   -1.9167   -3.6548   -5.1866 C   0  0  0  0  0  0  0  0  0  0  0  0
    0.5611   -3.7045   -4.9122 C   0  0  0  0  0  0  0  0  0  0  0  0
   -1.8177   -4.7384   -6.0487 C   0  0  0  0  0  0  0  0  0  0  0  0
   -2.8564   -3.1790   -4.9269 H   0  0  0  0  0  0  0  0  0  0  0  0
    0.6155   -4.7836   -5.7773 C   0  0  0  0  0  0  0  0  0  0  0  0
    1.4531   -3.2858   -4.4604 H   0  0  0  0  0  0  0  0  0  0  0  0
   -0.5642   -5.2988   -6.3414 C   0  0  0  0  0  0  0  0  0  0  0  0
   -2.7106   -5.1559   -6.4979 H   0  0  0  0  0  0  0  0  0  0  0  0
    1.5611   -5.2484   -6.0334 H   0  0  0  0  0  0  0  0  0  0  0  0
   -0.4158   -6.4763   -7.2698 C   0  0  0  0  0  0  0  0  0  0  0  0
    0.6563   -6.9699   -7.5318 O   0  0  0  0  0  0  0  0  0  0  0  0
   -1.5958   -6.8896   -7.7549 O   0  0  0  0  0  0  0  0  0  0  0  0
   -1.4295   -7.6489   -8.3407 H   0  0  0  0  0  0  0  0  0  0  0  0
   -4.4016   -0.6963   -3.2554 C   0  0  0  0  0  0  0  0  0  0  0  0
   -3.6005   -1.5447   -3.6456 O   0  0  0  0  0  0  0  0  0  0  0  0
   -5.4204   -0.2819   -4.0214 O   0  0  0  0  0  0  0  0  0  0  0  0
   -5.3715   -0.7561   -4.8676 H   0  0  0  0  0  0  0  0  0  0  0  0
  1  2  2  0  0  0  0
  2  3  1  0  0  0  0
  4  9  1  0  0  0  0
  4  3  2  0  0  0  0
  5  4  1  0  0  0  0
  6  5  2  0  0  0  0
  6  1  1  0  0  0  0
  7  1  1  0  0  0  0
  8  5  1  0  0  0  0
 11 10  1  0  0  0  0
 12 11  1  0  0  0  0
 13 16  1  0  0  0  0
 13 12  2  0  0  0  0
 14 12  1  0  0  0  0
 14 18  1  0  0  0  0
 15 13  1  0  0  0  0
 17 14  2  0  0  0  0
 19 15  2  0  0  0  0
 19 17  1  0  0  0  0
 20 15  1  0  0  0  0
 21 17  1  0  0  0  0
 22 19  1  0  0  0  0
 23 22  2  0  0  0  0
 24 22  1  0  0  0  0
 25 24  1  0  0  0  0
 26  6  1  0  0  0  0
 27 26  2  0  0  0  0
 28 26  1  0  0  0  0
 29 28  1  0  0  0  0
M  RAD  4   2   2   3   2  10   3  11   2
M  END
