Coordinates from ORCA-job 1g-Schema5-R8-G+-B3LYPG-6-31G_dp-scan-d49-09-n400
 OpenBabel08281819463D

 29 29  0  0  0  0  0  0  0  0999 V2000
   -3.5667   -1.1140   -1.3266 C   0  0  0  0  0  0  0  0  0  0  0  0
   -3.2134   -0.5298   -0.1272 C   0  0  0  0  0  0  0  0  0  0  0  0
   -3.5619    0.6170    0.2327 C   0  0  0  0  0  0  0  0  0  0  0  0
   -4.3232    1.5612   -0.4260 C   0  0  0  0  0  0  0  0  0  0  0  0
   -4.7221    1.0556   -1.6824 C   0  0  0  0  0  0  0  0  0  0  0  0
   -4.3484   -0.2329   -2.1278 C   0  0  0  0  0  0  0  0  0  0  0  0
   -3.3439   -2.1219   -1.6576 H   0  0  0  0  0  0  0  0  0  0  0  0
   -5.3360    1.6757   -2.3278 H   0  0  0  0  0  0  0  0  0  0  0  0
   -4.6104    2.5443   -0.0735 H   0  0  0  0  0  0  0  0  0  0  0  0
   -1.2820   -0.9277   -3.2068 N   0  0  0  0  0  0  0  0  0  0  0  0
   -1.1588   -1.8304   -3.8504 N   0  0  0  0  0  0  0  0  0  0  0  0
   -0.9698   -2.9544   -4.6283 C   0  0  0  0  0  0  0  0  0  0  0  0
   -2.0968   -3.5701   -5.2060 C   0  0  0  0  0  0  0  0  0  0  0  0
    0.3558   -3.4136   -4.7870 C   0  0  0  0  0  0  0  0  0  0  0  0
   -1.8651   -4.7029   -5.9756 C   0  0  0  0  0  0  0  0  0  0  0  0
   -3.0848   -3.1539   -5.0445 H   0  0  0  0  0  0  0  0  0  0  0  0
    0.5417   -4.5461   -5.5597 C   0  0  0  0  0  0  0  0  0  0  0  0
    1.1858   -2.8969   -4.3186 H   0  0  0  0  0  0  0  0  0  0  0  0
   -0.5601   -5.1888   -6.1502 C   0  0  0  0  0  0  0  0  0  0  0  0
   -2.6967   -5.2164   -6.4429 H   0  0  0  0  0  0  0  0  0  0  0  0
    1.5326   -4.9557   -5.7222 H   0  0  0  0  0  0  0  0  0  0  0  0
   -0.2698   -6.4173   -6.9724 C   0  0  0  0  0  0  0  0  0  0  0  0
    0.8489   -6.8498   -7.1264 O   0  0  0  0  0  0  0  0  0  0  0  0
   -1.3831   -6.9532   -7.4936 O   0  0  0  0  0  0  0  0  0  0  0  0
   -1.1255   -7.7409   -8.0039 H   0  0  0  0  0  0  0  0  0  0  0  0
   -4.7160   -0.7107   -3.4835 C   0  0  0  0  0  0  0  0  0  0  0  0
   -4.1286   -1.6179   -4.0637 O   0  0  0  0  0  0  0  0  0  0  0  0
   -5.7405   -0.0506   -4.0374 O   0  0  0  0  0  0  0  0  0  0  0  0
   -5.8931   -0.4238   -4.9222 H   0  0  0  0  0  0  0  0  0  0  0  0
  1  2  2  0  0  0  0
  2  3  1  0  0  0  0
  4  9  1  0  0  0  0
  4  3  2  0  0  0  0
  5  4  1  0  0  0  0
  6  5  2  0  0  0  0
  6  1  1  0  0  0  0
  7  1  1  0  0  0  0
  8  5  1  0  0  0  0
 11 10  1  0  0  0  0
 12 11  1  0  0  0  0
 13 16  1  0  0  0  0
 13 12  2  0  0  0  0
 14 12  1  0  0  0  0
 14 18  1  0  0  0  0
 15 13  1  0  0  0  0
 17 14  2  0  0  0  0
 19 15  2  0  0  0  0
 19 17  1  0  0  0  0
 20 15  1  0  0  0  0
 21 17  1  0  0  0  0
 22 19  1  0  0  0  0
 23 22  2  0  0  0  0
 24 22  1  0  0  0  0
 25 24  1  0  0  0  0
 26  6  1  0  0  0  0
 27 26  2  0  0  0  0
 28 26  1  0  0  0  0
 29 28  1  0  0  0  0
M  RAD  4   2   2   3   2  10   3  11   2
M  END
