Coordinates from ORCA-job 1g-Schema5-R8-G+-B3LYPG-6-31G_dp-scan-d49-09-n400
 OpenBabel08281819463D

 29 29  0  0  0  0  0  0  0  0999 V2000
   -3.7541   -1.4606   -1.6074 C   0  0  0  0  0  0  0  0  0  0  0  0
   -3.0802   -0.9194   -0.5268 C   0  0  0  0  0  0  0  0  0  0  0  0
   -3.1052    0.2930   -0.2156 C   0  0  0  0  0  0  0  0  0  0  0  0
   -3.7215    1.3589   -0.8359 C   0  0  0  0  0  0  0  0  0  0  0  0
   -4.4228    0.9011   -1.9751 C   0  0  0  0  0  0  0  0  0  0  0  0
   -4.4288   -0.4582   -2.3599 C   0  0  0  0  0  0  0  0  0  0  0  0
   -3.8056   -2.5051   -1.8963 H   0  0  0  0  0  0  0  0  0  0  0  0
   -4.9803    1.6165   -2.5713 H   0  0  0  0  0  0  0  0  0  0  0  0
   -3.7199    2.3979   -0.5284 H   0  0  0  0  0  0  0  0  0  0  0  0
   -1.3009   -0.9021   -2.8104 N   0  0  0  0  0  0  0  0  0  0  0  0
   -1.0978   -1.7522   -3.5079 N   0  0  0  0  0  0  0  0  0  0  0  0
   -0.9210   -2.8332   -4.3459 C   0  0  0  0  0  0  0  0  0  0  0  0
   -2.0732   -3.4157   -4.9108 C   0  0  0  0  0  0  0  0  0  0  0  0
    0.3950   -3.2848   -4.5775 C   0  0  0  0  0  0  0  0  0  0  0  0
   -1.8748   -4.5103   -5.7430 C   0  0  0  0  0  0  0  0  0  0  0  0
   -3.0628   -3.0125   -4.7029 H   0  0  0  0  0  0  0  0  0  0  0  0
    0.5468   -4.3791   -5.4108 C   0  0  0  0  0  0  0  0  0  0  0  0
    1.2436   -2.7931   -4.1158 H   0  0  0  0  0  0  0  0  0  0  0  0
   -0.5791   -4.9898   -5.9897 C   0  0  0  0  0  0  0  0  0  0  0  0
   -2.7262   -4.9967   -6.2037 H   0  0  0  0  0  0  0  0  0  0  0  0
    1.5290   -4.7826   -5.6309 H   0  0  0  0  0  0  0  0  0  0  0  0
   -0.3251   -6.1769   -6.8818 C   0  0  0  0  0  0  0  0  0  0  0  0
    0.7852   -6.6030   -7.1011 O   0  0  0  0  0  0  0  0  0  0  0  0
   -1.4598   -6.6844   -7.3852 O   0  0  0  0  0  0  0  0  0  0  0  0
   -1.2247   -7.4456   -7.9443 H   0  0  0  0  0  0  0  0  0  0  0  0
   -5.0982   -0.9031   -3.6138 C   0  0  0  0  0  0  0  0  0  0  0  0
   -4.8001   -1.9280   -4.2105 O   0  0  0  0  0  0  0  0  0  0  0  0
   -6.0509   -0.0658   -4.0425 O   0  0  0  0  0  0  0  0  0  0  0  0
   -6.4183   -0.4309   -4.8661 H   0  0  0  0  0  0  0  0  0  0  0  0
  1  2  2  0  0  0  0
  2  3  1  0  0  0  0
  4  9  1  0  0  0  0
  4  3  2  0  0  0  0
  5  4  1  0  0  0  0
  6  5  2  0  0  0  0
  6  1  1  0  0  0  0
  7  1  1  0  0  0  0
  8  5  1  0  0  0  0
 11 10  1  0  0  0  0
 12 11  1  0  0  0  0
 13 16  1  0  0  0  0
 13 12  2  0  0  0  0
 14 12  1  0  0  0  0
 14 18  1  0  0  0  0
 15 13  1  0  0  0  0
 17 14  2  0  0  0  0
 19 15  2  0  0  0  0
 19 17  1  0  0  0  0
 20 15  1  0  0  0  0
 21 17  1  0  0  0  0
 22 19  1  0  0  0  0
 23 22  2  0  0  0  0
 24 22  1  0  0  0  0
 25 24  1  0  0  0  0
 26  6  1  0  0  0  0
 27 26  2  0  0  0  0
 28 26  1  0  0  0  0
 29 28  1  0  0  0  0
M  RAD  4   2   2   3   2  10   3  11   2
M  END
