Coordinates from ORCA-job 1g-Schema5-R8-G+-B3LYPG-6-31G_dp-scan-d49-09-n400
 OpenBabel08281819463D

 29 29  0  0  0  0  0  0  0  0999 V2000
   -3.4408   -0.5290   -0.9265 C   0  0  0  0  0  0  0  0  0  0  0  0
   -3.5487    0.1557    0.2650 C   0  0  0  0  0  0  0  0  0  0  0  0
   -4.3258    1.1133    0.4762 C   0  0  0  0  0  0  0  0  0  0  0  0
   -5.2291    1.7171   -0.3761 C   0  0  0  0  0  0  0  0  0  0  0  0
   -5.1922    1.0833   -1.6350 C   0  0  0  0  0  0  0  0  0  0  0  0
   -4.3244   -0.0016   -1.9097 C   0  0  0  0  0  0  0  0  0  0  0  0
   -2.8009   -1.3772   -1.1420 H   0  0  0  0  0  0  0  0  0  0  0  0
   -5.8488    1.4404   -2.4214 H   0  0  0  0  0  0  0  0  0  0  0  0
   -5.8886    2.5490   -0.1597 H   0  0  0  0  0  0  0  0  0  0  0  0
   -0.7867   -1.2201   -3.1320 N   0  0  0  0  0  0  0  0  0  0  0  0
   -0.6864   -2.0911   -3.8191 N   0  0  0  0  0  0  0  0  0  0  0  0
   -0.6437   -3.1728   -4.6722 C   0  0  0  0  0  0  0  0  0  0  0  0
   -1.8698   -3.6426   -5.1835 C   0  0  0  0  0  0  0  0  0  0  0  0
    0.6123   -3.7379   -4.9715 C   0  0  0  0  0  0  0  0  0  0  0  0
   -1.8146   -4.7374   -6.0351 C   0  0  0  0  0  0  0  0  0  0  0  0
   -2.7924   -3.1444   -4.9053 H   0  0  0  0  0  0  0  0  0  0  0  0
    0.6235   -4.8272   -5.8256 C   0  0  0  0  0  0  0  0  0  0  0  0
    1.5236   -3.3321   -4.5471 H   0  0  0  0  0  0  0  0  0  0  0  0
   -0.5800   -5.3253   -6.3533 C   0  0  0  0  0  0  0  0  0  0  0  0
   -2.7266   -5.1423   -6.4566 H   0  0  0  0  0  0  0  0  0  0  0  0
    1.5530   -5.3131   -6.1009 H   0  0  0  0  0  0  0  0  0  0  0  0
   -0.4784   -6.5157   -7.2715 C   0  0  0  0  0  0  0  0  0  0  0  0
    0.5769   -7.0316   -7.5572 O   0  0  0  0  0  0  0  0  0  0  0  0
   -1.6790   -6.9147   -7.7167 O   0  0  0  0  0  0  0  0  0  0  0  0
   -1.5428   -7.6843   -8.2969 H   0  0  0  0  0  0  0  0  0  0  0  0
   -4.2972   -0.6271   -3.2499 C   0  0  0  0  0  0  0  0  0  0  0  0
   -3.4482   -1.4380   -3.6208 O   0  0  0  0  0  0  0  0  0  0  0  0
   -5.2930   -0.2338   -4.0570 O   0  0  0  0  0  0  0  0  0  0  0  0
   -5.1830   -0.6851   -4.9099 H   0  0  0  0  0  0  0  0  0  0  0  0
  1  2  2  0  0  0  0
  2  3  1  0  0  0  0
  4  9  1  0  0  0  0
  4  3  2  0  0  0  0
  5  4  1  0  0  0  0
  6  5  2  0  0  0  0
  6  1  1  0  0  0  0
  7  1  1  0  0  0  0
  8  5  1  0  0  0  0
 11 10  1  0  0  0  0
 12 11  1  0  0  0  0
 13 16  1  0  0  0  0
 13 12  2  0  0  0  0
 14 12  1  0  0  0  0
 14 18  1  0  0  0  0
 15 13  1  0  0  0  0
 17 14  2  0  0  0  0
 19 15  2  0  0  0  0
 19 17  1  0  0  0  0
 20 15  1  0  0  0  0
 21 17  1  0  0  0  0
 22 19  1  0  0  0  0
 23 22  2  0  0  0  0
 24 22  1  0  0  0  0
 25 24  1  0  0  0  0
 26  6  1  0  0  0  0
 27 26  2  0  0  0  0
 28 26  1  0  0  0  0
 29 28  1  0  0  0  0
M  RAD  4   2   2   3   2  10   3  11   2
M  END
