Coordinates from ORCA-job 1g-Schema5-R8-G+-B3LYPG-6-31G_dp-scan-d49-09-n400
 OpenBabel08281819463D

 29 29  0  0  0  0  0  0  0  0999 V2000
   -3.7545   -1.4651   -1.6147 C   0  0  0  0  0  0  0  0  0  0  0  0
   -3.0679   -0.9239   -0.5421 C   0  0  0  0  0  0  0  0  0  0  0  0
   -3.0870    0.2892   -0.2331 C   0  0  0  0  0  0  0  0  0  0  0  0
   -3.7068    1.3555   -0.8490 C   0  0  0  0  0  0  0  0  0  0  0  0
   -4.4194    0.8976   -1.9812 C   0  0  0  0  0  0  0  0  0  0  0  0
   -4.4322   -0.4623   -2.3636 C   0  0  0  0  0  0  0  0  0  0  0  0
   -3.8113   -2.5100   -1.9015 H   0  0  0  0  0  0  0  0  0  0  0  0
   -4.9800    1.6135   -2.5740 H   0  0  0  0  0  0  0  0  0  0  0  0
   -3.7005    2.3948   -0.5427 H   0  0  0  0  0  0  0  0  0  0  0  0
   -1.3025   -0.9039   -2.7983 N   0  0  0  0  0  0  0  0  0  0  0  0
   -1.0982   -1.7527   -3.4973 N   0  0  0  0  0  0  0  0  0  0  0  0
   -0.9217   -2.8324   -4.3374 C   0  0  0  0  0  0  0  0  0  0  0  0
   -2.0738   -3.4121   -4.9059 C   0  0  0  0  0  0  0  0  0  0  0  0
    0.3940   -3.2851   -4.5680 C   0  0  0  0  0  0  0  0  0  0  0  0
   -1.8754   -4.5047   -5.7406 C   0  0  0  0  0  0  0  0  0  0  0  0
   -3.0632   -3.0080   -4.6988 H   0  0  0  0  0  0  0  0  0  0  0  0
    0.5457   -4.3776   -5.4038 C   0  0  0  0  0  0  0  0  0  0  0  0
    1.2425   -2.7956   -4.1038 H   0  0  0  0  0  0  0  0  0  0  0  0
   -0.5800   -4.9854   -5.9862 C   0  0  0  0  0  0  0  0  0  0  0  0
   -2.7266   -4.9887   -6.2041 H   0  0  0  0  0  0  0  0  0  0  0  0
    1.5277   -4.7818   -5.6234 H   0  0  0  0  0  0  0  0  0  0  0  0
   -0.3259   -6.1704   -6.8810 C   0  0  0  0  0  0  0  0  0  0  0  0
    0.7842   -6.5976   -7.0992 O   0  0  0  0  0  0  0  0  0  0  0  0
   -1.4603   -6.6752   -7.3876 O   0  0  0  0  0  0  0  0  0  0  0  0
   -1.2253   -7.4353   -7.9482 H   0  0  0  0  0  0  0  0  0  0  0  0
   -5.1077   -0.9078   -3.6140 C   0  0  0  0  0  0  0  0  0  0  0  0
   -4.8106   -1.9327   -4.2110 O   0  0  0  0  0  0  0  0  0  0  0  0
   -6.0622   -0.0709   -4.0395 O   0  0  0  0  0  0  0  0  0  0  0  0
   -6.4326   -0.4367   -4.8615 H   0  0  0  0  0  0  0  0  0  0  0  0
  1  2  2  0  0  0  0
  2  3  1  0  0  0  0
  4  9  1  0  0  0  0
  4  3  2  0  0  0  0
  5  4  1  0  0  0  0
  6  5  2  0  0  0  0
  6  1  1  0  0  0  0
  7  1  1  0  0  0  0
  8  5  1  0  0  0  0
 11 10  1  0  0  0  0
 12 11  1  0  0  0  0
 13 16  1  0  0  0  0
 13 12  2  0  0  0  0
 14 12  1  0  0  0  0
 14 18  1  0  0  0  0
 15 13  1  0  0  0  0
 17 14  2  0  0  0  0
 19 15  2  0  0  0  0
 19 17  1  0  0  0  0
 20 15  1  0  0  0  0
 21 17  1  0  0  0  0
 22 19  1  0  0  0  0
 23 22  2  0  0  0  0
 24 22  1  0  0  0  0
 25 24  1  0  0  0  0
 26  6  1  0  0  0  0
 27 26  2  0  0  0  0
 28 26  1  0  0  0  0
 29 28  1  0  0  0  0
M  RAD  4   2   2   3   2  10   3  11   2
M  END
