Coordinates from ORCA-job 1g-Schema5-R8-G+-B3LYPG-6-31G_dp-scan-d49-09-n400
 OpenBabel08281819463D

 29 31  0  0  1  0  0  0  0  0999 V2000
   -4.0594   -1.5945   -1.5791 C   0  0  0  0  0  0  0  0  0  0  0  0
   -3.0325   -2.4855   -2.1888 C   0  0  0  0  0  0  0  0  0  0  0  0
   -2.8996   -2.3311   -3.6943 C   0  0  0  0  0  0  0  0  0  0  0  0
   -3.6395   -1.4021   -4.3889 C   0  0  0  0  0  0  0  0  0  0  0  0
   -4.5488   -0.5766   -3.7054 C   0  0  0  0  0  0  0  0  0  0  0  0
   -4.7726   -0.6783   -2.3110 C   0  0  0  0  0  0  0  0  0  0  0  0
   -4.2080   -1.6825   -0.5058 H   0  0  0  0  0  0  0  0  0  0  0  0
   -5.1071    0.1695   -4.2627 H   0  0  0  0  0  0  0  0  0  0  0  0
   -3.5323   -1.2799   -5.4626 H   0  0  0  0  0  0  0  0  0  0  0  0
   -2.4586   -3.1116   -1.6056 N   0  0  0  0  0  0  0  0  0  0  0  0
   -1.4091   -3.9307   -1.9344 N   0  0  0  0  0  0  0  0  0  0  0  0
   -1.1056   -3.9714   -3.2213 C   0  0  0  0  0  0  0  0  0  0  0  0
   -1.9717   -3.3338   -4.2806 C   0  0  2  0  0  0  0  0  0  0  0  0
    0.0528   -4.6965   -3.6321 C   0  0  0  0  0  0  0  0  0  0  0  0
   -1.3455   -3.1622   -5.6250 C   0  0  0  0  0  0  0  0  0  0  0  0
   -2.6817   -4.1811   -4.4863 H   0  0  0  0  0  0  0  0  0  0  0  0
    0.4909   -4.6098   -4.9235 C   0  0  0  0  0  0  0  0  0  0  0  0
    0.5951   -5.2519   -2.8747 H   0  0  0  0  0  0  0  0  0  0  0  0
   -0.1924   -3.8128   -5.9188 C   0  0  0  0  0  0  0  0  0  0  0  0
   -1.8622   -2.5874   -6.3852 H   0  0  0  0  0  0  0  0  0  0  0  0
    1.3947   -5.1200   -5.2416 H   0  0  0  0  0  0  0  0  0  0  0  0
    0.4497   -3.7326   -7.2748 C   0  0  0  0  0  0  0  0  0  0  0  0
    1.4821   -4.3008   -7.5439 O   0  0  0  0  0  0  0  0  0  0  0  0
   -0.2516   -2.9679   -8.1299 O   0  0  0  0  0  0  0  0  0  0  0  0
    0.2257   -2.9611   -8.9779 H   0  0  0  0  0  0  0  0  0  0  0  0
   -5.7706    0.1930   -1.5945 C   0  0  0  0  0  0  0  0  0  0  0  0
   -5.9771    0.1176   -0.4075 O   0  0  0  0  0  0  0  0  0  0  0  0
   -6.3843    1.0414   -2.4365 O   0  0  0  0  0  0  0  0  0  0  0  0
   -7.0129    1.5749   -1.9191 H   0  0  0  0  0  0  0  0  0  0  0  0
  1  7  1  0  0  0  0
  2 10  1  0  0  0  0
  2  1  1  0  0  0  0
  3  2  2  0  0  0  0
  4  5  2  0  0  0  0
  4  3  1  0  0  0  0
  5  6  1  0  0  0  0
  6 26  1  0  0  0  0
  6  1  2  0  0  0  0
  8  5  1  0  0  0  0
  9  4  1  0  0  0  0
 11 10  1  0  0  0  0
 12 11  2  0  0  0  0
 13 16  1  6  0  0  0
 13  3  1  0  0  0  0
 13 12  1  0  0  0  0
 14 12  1  0  0  0  0
 14 18  1  0  0  0  0
 15 13  1  0  0  0  0
 17 14  2  0  0  0  0
 19 15  2  0  0  0  0
 19 17  1  0  0  0  0
 20 15  1  0  0  0  0
 21 17  1  0  0  0  0
 22 19  1  0  0  0  0
 23 22  2  0  0  0  0
 24 22  1  0  0  0  0
 25 24  1  0  0  0  0
 26 27  2  0  0  0  0
 28 29  1  0  0  0  0
 28 26  1  0  0  0  0
M  RAD  1  10   2
M  END
