Coordinates from ORCA-job 1g-Schema5-R8-G+-B3LYPG-6-31G_dp-scan-d49-09-n400
 OpenBabel08281819463D

 29 31  0  0  1  0  0  0  0  0999 V2000
   -4.0528   -1.6095   -1.6102 C   0  0  0  0  0  0  0  0  0  0  0  0
   -3.0924   -2.4669   -2.2491 C   0  0  0  0  0  0  0  0  0  0  0  0
   -2.9132   -2.3374   -3.6851 C   0  0  0  0  0  0  0  0  0  0  0  0
   -3.6422   -1.4027   -4.3958 C   0  0  0  0  0  0  0  0  0  0  0  0
   -4.5455   -0.5638   -3.7248 C   0  0  0  0  0  0  0  0  0  0  0  0
   -4.7607   -0.6705   -2.3363 C   0  0  0  0  0  0  0  0  0  0  0  0
   -4.2004   -1.7107   -0.5395 H   0  0  0  0  0  0  0  0  0  0  0  0
   -5.0934    0.1877   -4.2835 H   0  0  0  0  0  0  0  0  0  0  0  0
   -3.5196   -1.2890   -5.4680 H   0  0  0  0  0  0  0  0  0  0  0  0
   -2.4715   -3.2360   -1.5326 N   0  0  0  0  0  0  0  0  0  0  0  0
   -1.4642   -4.0016   -1.9243 N   0  0  0  0  0  0  0  0  0  0  0  0
   -1.1236   -3.9914   -3.2307 C   0  0  0  0  0  0  0  0  0  0  0  0
   -1.9823   -3.3522   -4.2743 C   0  0  2  0  0  0  0  0  0  0  0  0
    0.0578   -4.6606   -3.6153 C   0  0  0  0  0  0  0  0  0  0  0  0
   -1.3667   -3.1824   -5.6181 C   0  0  0  0  0  0  0  0  0  0  0  0
   -2.6844   -4.2034   -4.4972 H   0  0  0  0  0  0  0  0  0  0  0  0
    0.5126   -4.5559   -4.9108 C   0  0  0  0  0  0  0  0  0  0  0  0
    0.6120   -5.1969   -2.8525 H   0  0  0  0  0  0  0  0  0  0  0  0
   -0.1902   -3.8008   -5.9119 C   0  0  0  0  0  0  0  0  0  0  0  0
   -1.9065   -2.6399   -6.3862 H   0  0  0  0  0  0  0  0  0  0  0  0
    1.4401   -5.0317   -5.2154 H   0  0  0  0  0  0  0  0  0  0  0  0
    0.4480   -3.7183   -7.2714 C   0  0  0  0  0  0  0  0  0  0  0  0
    1.5065   -4.2421   -7.5261 O   0  0  0  0  0  0  0  0  0  0  0  0
   -0.2880   -3.0009   -8.1357 O   0  0  0  0  0  0  0  0  0  0  0  0
    0.1850   -2.9820   -8.9861 H   0  0  0  0  0  0  0  0  0  0  0  0
   -5.7391    0.2032   -1.6016 C   0  0  0  0  0  0  0  0  0  0  0  0
   -5.9352    0.1188   -0.4126 O   0  0  0  0  0  0  0  0  0  0  0  0
   -6.3537    1.0695   -2.4254 O   0  0  0  0  0  0  0  0  0  0  0  0
   -6.9685    1.6018   -1.8910 H   0  0  0  0  0  0  0  0  0  0  0  0
  1  7  1  0  0  0  0
  2  1  1  0  0  0  0
  2 10  1  0  0  0  0
  3  2  2  0  0  0  0
  4  5  2  0  0  0  0
  4  3  1  0  0  0  0
  5  6  1  0  0  0  0
  6  1  2  0  0  0  0
  6 26  1  0  0  0  0
  8  5  1  0  0  0  0
  9  4  1  0  0  0  0
 11 10  1  0  0  0  0
 12 11  2  0  0  0  0
 13 16  1  6  0  0  0
 13  3  1  0  0  0  0
 13 12  1  0  0  0  0
 14 12  1  0  0  0  0
 14 18  1  0  0  0  0
 15 13  1  0  0  0  0
 17 14  2  0  0  0  0
 19 15  2  0  0  0  0
 19 17  1  0  0  0  0
 20 15  1  0  0  0  0
 21 17  1  0  0  0  0
 22 19  1  0  0  0  0
 23 22  2  0  0  0  0
 24 22  1  0  0  0  0
 25 24  1  0  0  0  0
 26 27  2  0  0  0  0
 28 29  1  0  0  0  0
 28 26  1  0  0  0  0
M  RAD  1  10   2
M  END
