Coordinates from ORCA-job 1g-Schema5-R8-G+-B3LYPG-6-31G_dp-scan-d49-09-n400
 OpenBabel08281819463D

 29 29  0  0  0  0  0  0  0  0999 V2000
   -3.4611   -1.2599   -1.9196 C   0  0  0  0  0  0  0  0  0  0  0  0
   -2.6067   -0.4692   -1.1572 C   0  0  0  0  0  0  0  0  0  0  0  0
   -2.8587    0.7560   -1.0205 C   0  0  0  0  0  0  0  0  0  0  0  0
   -3.8210    1.5986   -1.5157 C   0  0  0  0  0  0  0  0  0  0  0  0
   -4.6944    0.8403   -2.3306 C   0  0  0  0  0  0  0  0  0  0  0  0
   -4.5073   -0.5427   -2.5437 C   0  0  0  0  0  0  0  0  0  0  0  0
   -3.3726   -2.3317   -2.0667 H   0  0  0  0  0  0  0  0  0  0  0  0
   -5.5346    1.3408   -2.8013 H   0  0  0  0  0  0  0  0  0  0  0  0
   -3.9533    2.6566   -1.3269 H   0  0  0  0  0  0  0  0  0  0  0  0
   -0.4724   -1.5359   -1.8478 N   0  0  0  0  0  0  0  0  0  0  0  0
   -0.5338   -2.2301   -2.7274 N   0  0  0  0  0  0  0  0  0  0  0  0
   -0.5933   -3.0829   -3.8129 C   0  0  0  0  0  0  0  0  0  0  0  0
   -1.8237   -3.2860   -4.4700 C   0  0  0  0  0  0  0  0  0  0  0  0
    0.6137   -3.7075   -4.1961 C   0  0  0  0  0  0  0  0  0  0  0  0
   -1.8240   -4.1579   -5.5515 C   0  0  0  0  0  0  0  0  0  0  0  0
   -2.7425   -2.7973   -4.1573 H   0  0  0  0  0  0  0  0  0  0  0  0
    0.5715   -4.5676   -5.2791 C   0  0  0  0  0  0  0  0  0  0  0  0
    1.5330   -3.5146   -3.6546 H   0  0  0  0  0  0  0  0  0  0  0  0
   -0.6398   -4.7939   -5.9540 C   0  0  0  0  0  0  0  0  0  0  0  0
   -2.7490   -4.3475   -6.0827 H   0  0  0  0  0  0  0  0  0  0  0  0
    1.4636   -5.0790   -5.6227 H   0  0  0  0  0  0  0  0  0  0  0  0
   -0.6017   -5.7471   -7.1197 C   0  0  0  0  0  0  0  0  0  0  0  0
    0.4109   -6.3048   -7.4745 O   0  0  0  0  0  0  0  0  0  0  0  0
   -1.8036   -5.8900   -7.6973 O   0  0  0  0  0  0  0  0  0  0  0  0
   -1.7067   -6.5146   -8.4374 H   0  0  0  0  0  0  0  0  0  0  0  0
   -5.3448   -1.3138   -3.5079 C   0  0  0  0  0  0  0  0  0  0  0  0
   -4.9866   -2.3705   -4.0034 O   0  0  0  0  0  0  0  0  0  0  0  0
   -6.5148   -0.7268   -3.7929 O   0  0  0  0  0  0  0  0  0  0  0  0
   -6.9780   -1.2868   -4.4399 H   0  0  0  0  0  0  0  0  0  0  0  0
  1  2  2  0  0  0  0
  2  3  1  0  0  0  0
  4  9  1  0  0  0  0
  4  3  2  0  0  0  0
  5  4  1  0  0  0  0
  6  5  2  0  0  0  0
  6  1  1  0  0  0  0
  7  1  1  0  0  0  0
  8  5  1  0  0  0  0
 11 10  1  0  0  0  0
 12 11  1  0  0  0  0
 13 16  1  0  0  0  0
 13 12  2  0  0  0  0
 14 12  1  0  0  0  0
 14 18  1  0  0  0  0
 15 13  1  0  0  0  0
 17 14  2  0  0  0  0
 19 15  2  0  0  0  0
 19 17  1  0  0  0  0
 20 15  1  0  0  0  0
 21 17  1  0  0  0  0
 22 19  1  0  0  0  0
 23 22  2  0  0  0  0
 24 22  1  0  0  0  0
 25 24  1  0  0  0  0
 26  6  1  0  0  0  0
 27 26  2  0  0  0  0
 28 26  1  0  0  0  0
 29 28  1  0  0  0  0
M  RAD  4   2   2   3   2  10   3  11   2
M  END
