Coordinates from ORCA-job 1g-Schema5-R8-G+-B3LYPG-6-31G_dp-scan-d49-09-n400
 OpenBabel08281819463D

 29 29  0  0  0  0  0  0  0  0999 V2000
   -3.5266   -0.9794   -1.2193 C   0  0  0  0  0  0  0  0  0  0  0  0
   -3.2712   -0.3473   -0.0201 C   0  0  0  0  0  0  0  0  0  0  0  0
   -3.7234    0.7739    0.3025 C   0  0  0  0  0  0  0  0  0  0  0  0
   -4.5305    1.6415   -0.4055 C   0  0  0  0  0  0  0  0  0  0  0  0
   -4.8372    1.0826   -1.6646 C   0  0  0  0  0  0  0  0  0  0  0  0
   -4.3443   -0.1800   -2.0680 C   0  0  0  0  0  0  0  0  0  0  0  0
   -3.2084   -1.9706   -1.5203 H   0  0  0  0  0  0  0  0  0  0  0  0
   -5.4714    1.6401   -2.3466 H   0  0  0  0  0  0  0  0  0  0  0  0
   -4.9067    2.6059   -0.0866 H   0  0  0  0  0  0  0  0  0  0  0  0
   -1.1728   -0.9978   -3.1907 N   0  0  0  0  0  0  0  0  0  0  0  0
   -1.0576   -1.8945   -3.8430 N   0  0  0  0  0  0  0  0  0  0  0  0
   -0.8996   -3.0093   -4.6398 C   0  0  0  0  0  0  0  0  0  0  0  0
   -2.0476   -3.5876   -5.2157 C   0  0  0  0  0  0  0  0  0  0  0  0
    0.4128   -3.4965   -4.8208 C   0  0  0  0  0  0  0  0  0  0  0  0
   -1.8510   -4.7109   -6.0083 C   0  0  0  0  0  0  0  0  0  0  0  0
   -3.0236   -3.1516   -5.0333 H   0  0  0  0  0  0  0  0  0  0  0  0
    0.5634   -4.6184   -5.6165 C   0  0  0  0  0  0  0  0  0  0  0  0
    1.2597   -3.0083   -4.3523 H   0  0  0  0  0  0  0  0  0  0  0  0
   -0.5596   -5.2236   -6.2066 C   0  0  0  0  0  0  0  0  0  0  0  0
   -2.6993   -5.1966   -6.4754 H   0  0  0  0  0  0  0  0  0  0  0  0
    1.5424   -5.0481   -5.7977 H   0  0  0  0  0  0  0  0  0  0  0  0
   -0.3074   -6.4428   -7.0551 C   0  0  0  0  0  0  0  0  0  0  0  0
    0.7987   -6.8996   -7.2283 O   0  0  0  0  0  0  0  0  0  0  0  0
   -1.4387   -6.9408   -7.5750 O   0  0  0  0  0  0  0  0  0  0  0  0
   -1.2059   -7.7246   -8.1031 H   0  0  0  0  0  0  0  0  0  0  0  0
   -4.6294   -0.7146   -3.4209 C   0  0  0  0  0  0  0  0  0  0  0  0
   -3.9761   -1.6097   -3.9494 O   0  0  0  0  0  0  0  0  0  0  0  0
   -5.6617   -0.1249   -4.0370 O   0  0  0  0  0  0  0  0  0  0  0  0
   -5.7587   -0.5325   -4.9141 H   0  0  0  0  0  0  0  0  0  0  0  0
  1  2  2  0  0  0  0
  2  3  1  0  0  0  0
  4  9  1  0  0  0  0
  4  3  2  0  0  0  0
  5  4  1  0  0  0  0
  6  5  2  0  0  0  0
  6  1  1  0  0  0  0
  7  1  1  0  0  0  0
  8  5  1  0  0  0  0
 11 10  1  0  0  0  0
 12 11  1  0  0  0  0
 13 16  1  0  0  0  0
 13 12  2  0  0  0  0
 14 12  1  0  0  0  0
 14 18  1  0  0  0  0
 15 13  1  0  0  0  0
 17 14  2  0  0  0  0
 19 15  2  0  0  0  0
 19 17  1  0  0  0  0
 20 15  1  0  0  0  0
 21 17  1  0  0  0  0
 22 19  1  0  0  0  0
 23 22  2  0  0  0  0
 24 22  1  0  0  0  0
 25 24  1  0  0  0  0
 26  6  1  0  0  0  0
 27 26  2  0  0  0  0
 28 26  1  0  0  0  0
 29 28  1  0  0  0  0
M  RAD  4   2   2   3   2  10   3  11   2
M  END
