Coordinates from ORCA-job 1g-Schema5-R8-G+-B3LYPG-6-31G_dp-scan-d49-09-n400
 OpenBabel08281819463D

 29 29  0  0  0  0  0  0  0  0999 V2000
   -3.4300   -0.5150   -0.9315 C   0  0  0  0  0  0  0  0  0  0  0  0
   -3.6197    0.0900    0.2918 C   0  0  0  0  0  0  0  0  0  0  0  0
   -4.4575    0.9885    0.5281 C   0  0  0  0  0  0  0  0  0  0  0  0
   -5.3652    1.5896   -0.3218 C   0  0  0  0  0  0  0  0  0  0  0  0
   -5.2494    1.0333   -1.6118 C   0  0  0  0  0  0  0  0  0  0  0  0
   -4.3112    0.0161   -1.9147 C   0  0  0  0  0  0  0  0  0  0  0  0
   -2.7311   -1.3075   -1.1720 H   0  0  0  0  0  0  0  0  0  0  0  0
   -5.8987    1.3982   -2.4004 H   0  0  0  0  0  0  0  0  0  0  0  0
   -6.0788    2.3695   -0.0834 H   0  0  0  0  0  0  0  0  0  0  0  0
   -0.6589   -1.1356   -3.2411 N   0  0  0  0  0  0  0  0  0  0  0  0
   -0.5914   -2.0293   -3.9026 N   0  0  0  0  0  0  0  0  0  0  0  0
   -0.5879   -3.1385   -4.7210 C   0  0  0  0  0  0  0  0  0  0  0  0
   -1.8330   -3.5995   -5.1928 C   0  0  0  0  0  0  0  0  0  0  0  0
    0.6504   -3.7385   -5.0263 C   0  0  0  0  0  0  0  0  0  0  0  0
   -1.8165   -4.7217   -6.0096 C   0  0  0  0  0  0  0  0  0  0  0  0
   -2.7402   -3.0742   -4.9135 H   0  0  0  0  0  0  0  0  0  0  0  0
    0.6229   -4.8545   -5.8449 C   0  0  0  0  0  0  0  0  0  0  0  0
    1.5778   -3.3381   -4.6329 H   0  0  0  0  0  0  0  0  0  0  0  0
   -0.6005   -5.3445   -6.3327 C   0  0  0  0  0  0  0  0  0  0  0  0
   -2.7447   -5.1210   -6.4001 H   0  0  0  0  0  0  0  0  0  0  0  0
    1.5369   -5.3678   -6.1223 H   0  0  0  0  0  0  0  0  0  0  0  0
   -0.5409   -6.5653   -7.2140 C   0  0  0  0  0  0  0  0  0  0  0  0
    0.4982   -7.1105   -7.5046 O   0  0  0  0  0  0  0  0  0  0  0  0
   -1.7578   -6.9539   -7.6225 O   0  0  0  0  0  0  0  0  0  0  0  0
   -1.6485   -7.7440   -8.1802 H   0  0  0  0  0  0  0  0  0  0  0  0
   -4.2120   -0.5352   -3.2832 C   0  0  0  0  0  0  0  0  0  0  0  0
   -3.3280   -1.3032   -3.6640 O   0  0  0  0  0  0  0  0  0  0  0  0
   -5.1872   -0.1264   -4.1084 O   0  0  0  0  0  0  0  0  0  0  0  0
   -5.0290   -0.5270   -4.9788 H   0  0  0  0  0  0  0  0  0  0  0  0
  1  2  2  0  0  0  0
  2  3  1  0  0  0  0
  4  9  1  0  0  0  0
  4  3  2  0  0  0  0
  5  4  1  0  0  0  0
  6  5  2  0  0  0  0
  6  1  1  0  0  0  0
  7  1  1  0  0  0  0
  8  5  1  0  0  0  0
 11 10  1  0  0  0  0
 12 11  1  0  0  0  0
 13 16  1  0  0  0  0
 13 12  2  0  0  0  0
 14 12  1  0  0  0  0
 14 18  1  0  0  0  0
 15 13  1  0  0  0  0
 17 14  2  0  0  0  0
 19 15  2  0  0  0  0
 19 17  1  0  0  0  0
 20 15  1  0  0  0  0
 21 17  1  0  0  0  0
 22 19  1  0  0  0  0
 23 22  2  0  0  0  0
 24 22  1  0  0  0  0
 25 24  1  0  0  0  0
 26  6  1  0  0  0  0
 27 26  2  0  0  0  0
 28 26  1  0  0  0  0
 29 28  1  0  0  0  0
M  RAD  4   2   2   3   2  10   3  11   2
M  END
