Coordinates from ORCA-job 1g-Schema5-R8-G+-B3LYPG-6-31G_dp-scan-d49-09-n400
 OpenBabel08281819463D

 29 31  0  0  1  0  0  0  0  0999 V2000
   -4.1340   -1.7762   -1.6734 C   0  0  0  0  0  0  0  0  0  0  0  0
   -3.3935   -2.7156   -2.3439 C   0  0  0  0  0  0  0  0  0  0  0  0
   -3.0599   -2.7075   -3.6738 C   0  0  0  0  0  0  0  0  0  0  0  0
   -3.5023   -1.6130   -4.4270 C   0  0  0  0  0  0  0  0  0  0  0  0
   -4.2479   -0.6069   -3.8028 C   0  0  0  0  0  0  0  0  0  0  0  0
   -4.5683   -0.6814   -2.4419 C   0  0  0  0  0  0  0  0  0  0  0  0
   -4.3770   -1.8403   -0.6183 H   0  0  0  0  0  0  0  0  0  0  0  0
   -4.5808    0.2484   -4.3797 H   0  0  0  0  0  0  0  0  0  0  0  0
   -3.2762   -1.5422   -5.4865 H   0  0  0  0  0  0  0  0  0  0  0  0
   -2.7611   -4.2341   -1.4494 N   0  0  0  0  0  0  0  0  0  0  0  0
   -1.7986   -4.6449   -2.0555 N   0  0  0  0  0  0  0  0  0  0  0  0
   -1.2818   -4.2913   -3.2693 C   0  0  0  0  0  0  0  0  0  0  0  0
   -2.2826   -3.9296   -4.3137 C   0  0  2  0  0  0  0  0  0  0  0  0
    0.0932   -4.2226   -3.4744 C   0  0  0  0  0  0  0  0  0  0  0  0
   -1.6860   -3.6658   -5.6458 C   0  0  0  0  0  0  0  0  0  0  0  0
   -3.0437   -4.7174   -4.4303 H   0  0  0  0  0  0  0  0  0  0  0  0
    0.5529   -3.8450   -4.7276 C   0  0  0  0  0  0  0  0  0  0  0  0
    0.7757   -4.4417   -2.6603 H   0  0  0  0  0  0  0  0  0  0  0  0
   -0.3350   -3.5968   -5.8217 C   0  0  0  0  0  0  0  0  0  0  0  0
   -2.3498   -3.5736   -6.4992 H   0  0  0  0  0  0  0  0  0  0  0  0
    1.6180   -3.7492   -4.9208 H   0  0  0  0  0  0  0  0  0  0  0  0
    0.3019   -3.3029   -7.1538 C   0  0  0  0  0  0  0  0  0  0  0  0
    1.4994   -3.2275   -7.2967 O   0  0  0  0  0  0  0  0  0  0  0  0
   -0.6094   -3.1350   -8.1230 O   0  0  0  0  0  0  0  0  0  0  0  0
   -0.1359   -2.9527   -8.9538 H   0  0  0  0  0  0  0  0  0  0  0  0
   -5.3618    0.3769   -1.7334 C   0  0  0  0  0  0  0  0  0  0  0  0
   -5.6370    0.3213   -0.5563 O   0  0  0  0  0  0  0  0  0  0  0  0
   -5.7228    1.3795   -2.5540 O   0  0  0  0  0  0  0  0  0  0  0  0
   -6.2278    2.0212   -2.0252 H   0  0  0  0  0  0  0  0  0  0  0  0
  1  7  1  0  0  0  0
  2  1  1  0  0  0  0
  2 10  1  0  0  0  0
  3  2  2  0  0  0  0
  4  5  2  0  0  0  0
  4  3  1  0  0  0  0
  5  6  1  0  0  0  0
  6 26  1  0  0  0  0
  6  1  2  0  0  0  0
  8  5  1  0  0  0  0
  9  4  1  0  0  0  0
 11 10  1  0  0  0  0
 12 11  1  0  0  0  0
 13 16  1  6  0  0  0
 13  3  1  0  0  0  0
 13 12  1  0  0  0  0
 14 12  2  0  0  0  0
 14 18  1  0  0  0  0
 15 13  1  0  0  0  0
 17 14  1  0  0  0  0
 19 15  2  0  0  0  0
 19 17  1  0  0  0  0
 20 15  1  0  0  0  0
 21 17  1  0  0  0  0
 22 19  1  0  0  0  0
 23 22  2  0  0  0  0
 24 22  1  0  0  0  0
 25 24  1  0  0  0  0
 26 27  2  0  0  0  0
 28 29  1  0  0  0  0
 28 26  1  0  0  0  0
M  RAD  3  10   2  11   2  17   2
M  END
