Coordinates from ORCA-job 1g-Schema5-R8-G+-B3LYPG-6-31G_dp-scan-d49-09-n400
 OpenBabel08281819463D

 29 31  0  0  1  0  0  0  0  0999 V2000
   -4.0628   -1.5768   -1.5365 C   0  0  0  0  0  0  0  0  0  0  0  0
   -2.9908   -2.5098   -2.1187 C   0  0  0  0  0  0  0  0  0  0  0  0
   -2.9071   -2.3332   -3.7215 C   0  0  0  0  0  0  0  0  0  0  0  0
   -3.6556   -1.4073   -4.4043 C   0  0  0  0  0  0  0  0  0  0  0  0
   -4.5548   -0.5943   -3.6928 C   0  0  0  0  0  0  0  0  0  0  0  0
   -4.7732   -0.6839   -2.2887 C   0  0  0  0  0  0  0  0  0  0  0  0
   -4.2258   -1.6352   -0.4613 H   0  0  0  0  0  0  0  0  0  0  0  0
   -5.1274    0.1499   -4.2396 H   0  0  0  0  0  0  0  0  0  0  0  0
   -3.5761   -1.2714   -5.4805 H   0  0  0  0  0  0  0  0  0  0  0  0
   -2.4373   -3.0696   -1.6622 N   0  0  0  0  0  0  0  0  0  0  0  0
   -1.3709   -3.9225   -1.9331 N   0  0  0  0  0  0  0  0  0  0  0  0
   -1.0979   -3.9728   -3.2159 C   0  0  0  0  0  0  0  0  0  0  0  0
   -1.9755   -3.3361   -4.2878 C   0  0  2  0  0  0  0  0  0  0  0  0
    0.0520   -4.7182   -3.6441 C   0  0  0  0  0  0  0  0  0  0  0  0
   -1.3368   -3.1629   -5.6309 C   0  0  0  0  0  0  0  0  0  0  0  0
   -2.6917   -4.1794   -4.4834 H   0  0  0  0  0  0  0  0  0  0  0  0
    0.4841   -4.6347   -4.9315 C   0  0  0  0  0  0  0  0  0  0  0  0
    0.5899   -5.2834   -2.8909 H   0  0  0  0  0  0  0  0  0  0  0  0
   -0.1899   -3.8178   -5.9240 C   0  0  0  0  0  0  0  0  0  0  0  0
   -1.8446   -2.5725   -6.3851 H   0  0  0  0  0  0  0  0  0  0  0  0
    1.3785   -5.1574   -5.2548 H   0  0  0  0  0  0  0  0  0  0  0  0
    0.4579   -3.7307   -7.2755 C   0  0  0  0  0  0  0  0  0  0  0  0
    1.4804   -4.3143   -7.5512 O   0  0  0  0  0  0  0  0  0  0  0  0
   -0.2243   -2.9407   -8.1244 O   0  0  0  0  0  0  0  0  0  0  0  0
    0.2582   -2.9346   -8.9692 H   0  0  0  0  0  0  0  0  0  0  0  0
   -5.7801    0.1986   -1.5930 C   0  0  0  0  0  0  0  0  0  0  0  0
   -5.9932    0.1443   -0.4065 O   0  0  0  0  0  0  0  0  0  0  0  0
   -6.3918    1.0299   -2.4538 O   0  0  0  0  0  0  0  0  0  0  0  0
   -7.0252    1.5710   -1.9503 H   0  0  0  0  0  0  0  0  0  0  0  0
  1  7  1  0  0  0  0
  2 10  1  0  0  0  0
  2  1  2  0  0  0  0
  3  2  1  0  0  0  0
  4  3  2  0  0  0  0
  4  5  1  0  0  0  0
  5  6  2  0  0  0  0
  6 26  1  0  0  0  0
  6  1  1  0  0  0  0
  8  5  1  0  0  0  0
  9  4  1  0  0  0  0
 11 10  1  0  0  0  0
 12 11  2  0  0  0  0
 13 16  1  6  0  0  0
 13  3  1  0  0  0  0
 13 12  1  0  0  0  0
 14 12  1  0  0  0  0
 14 18  1  0  0  0  0
 15 13  1  0  0  0  0
 17 14  2  0  0  0  0
 19 15  2  0  0  0  0
 19 17  1  0  0  0  0
 20 15  1  0  0  0  0
 21 17  1  0  0  0  0
 22 19  1  0  0  0  0
 23 22  2  0  0  0  0
 24 22  1  0  0  0  0
 25 24  1  0  0  0  0
 26 27  2  0  0  0  0
 28 29  1  0  0  0  0
 28 26  1  0  0  0  0
M  RAD  1  10   2
M  END
