Coordinates from ORCA-job 1g-Schema5-R8-G+-B3LYPG-6-31G_dp-scan-d49-09-n400
 OpenBabel08281819463D

 29 29  0  0  0  0  0  0  0  0999 V2000
   -3.7520   -1.4232   -1.5615 C   0  0  0  0  0  0  0  0  0  0  0  0
   -3.1288   -0.8849   -0.4506 C   0  0  0  0  0  0  0  0  0  0  0  0
   -3.1767    0.3240   -0.1297 C   0  0  0  0  0  0  0  0  0  0  0  0
   -3.7930    1.3866   -0.7569 C   0  0  0  0  0  0  0  0  0  0  0  0
   -4.4488    0.9321   -1.9234 C   0  0  0  0  0  0  0  0  0  0  0  0
   -4.4199   -0.4225   -2.3239 C   0  0  0  0  0  0  0  0  0  0  0  0
   -3.7803   -2.4653   -1.8622 H   0  0  0  0  0  0  0  0  0  0  0  0
   -4.9960    1.6461   -2.5307 H   0  0  0  0  0  0  0  0  0  0  0  0
   -3.8168    2.4220   -0.4384 H   0  0  0  0  0  0  0  0  0  0  0  0
   -1.3287   -0.9048   -2.8821 N   0  0  0  0  0  0  0  0  0  0  0  0
   -1.1310   -1.7628   -3.5711 N   0  0  0  0  0  0  0  0  0  0  0  0
   -0.9407   -2.8503   -4.3977 C   0  0  0  0  0  0  0  0  0  0  0  0
   -2.0856   -3.4573   -4.9514 C   0  0  0  0  0  0  0  0  0  0  0  0
    0.3817   -3.2845   -4.6278 C   0  0  0  0  0  0  0  0  0  0  0  0
   -1.8740   -4.5591   -5.7704 C   0  0  0  0  0  0  0  0  0  0  0  0
   -3.0766   -3.0611   -4.7405 H   0  0  0  0  0  0  0  0  0  0  0  0
    0.5468   -4.3866   -5.4481 C   0  0  0  0  0  0  0  0  0  0  0  0
    1.2243   -2.7745   -4.1751 H   0  0  0  0  0  0  0  0  0  0  0  0
   -0.5718   -5.0217   -6.0152 C   0  0  0  0  0  0  0  0  0  0  0  0
   -2.7191   -5.0645   -6.2220 H   0  0  0  0  0  0  0  0  0  0  0  0
    1.5341   -4.7781   -5.6669 H   0  0  0  0  0  0  0  0  0  0  0  0
   -0.3023   -6.2166   -6.8924 C   0  0  0  0  0  0  0  0  0  0  0  0
    0.8139   -6.6276   -7.1105 O   0  0  0  0  0  0  0  0  0  0  0  0
   -1.4308   -6.7507   -7.3818 O   0  0  0  0  0  0  0  0  0  0  0  0
   -1.1861   -7.5164   -7.9304 H   0  0  0  0  0  0  0  0  0  0  0  0
   -5.0434   -0.8623   -3.6018 C   0  0  0  0  0  0  0  0  0  0  0  0
   -4.7182   -1.8803   -4.1968 O   0  0  0  0  0  0  0  0  0  0  0  0
   -5.9875   -0.0291   -4.0573 O   0  0  0  0  0  0  0  0  0  0  0  0
   -6.3244   -0.3923   -4.8946 H   0  0  0  0  0  0  0  0  0  0  0  0
  1  2  2  0  0  0  0
  2  3  1  0  0  0  0
  4  9  1  0  0  0  0
  4  3  2  0  0  0  0
  5  4  1  0  0  0  0
  6  5  2  0  0  0  0
  6  1  1  0  0  0  0
  7  1  1  0  0  0  0
  8  5  1  0  0  0  0
 11 10  1  0  0  0  0
 12 11  1  0  0  0  0
 13 16  1  0  0  0  0
 13 12  2  0  0  0  0
 14 12  1  0  0  0  0
 14 18  1  0  0  0  0
 15 13  1  0  0  0  0
 17 14  2  0  0  0  0
 19 15  2  0  0  0  0
 19 17  1  0  0  0  0
 20 15  1  0  0  0  0
 21 17  1  0  0  0  0
 22 19  1  0  0  0  0
 23 22  2  0  0  0  0
 24 22  1  0  0  0  0
 25 24  1  0  0  0  0
 26  6  1  0  0  0  0
 27 26  2  0  0  0  0
 28 26  1  0  0  0  0
 29 28  1  0  0  0  0
M  RAD  4   2   2   3   2  10   3  11   2
M  END
