Coordinates from ORCA-job 1g-Schema5-R8-G+-B3LYPG-6-31G_dp-scan-d49-09-n400
 OpenBabel08281819463D

 29 29  0  0  0  0  0  0  0  0999 V2000
   -3.5923   -1.1621   -1.3642 C   0  0  0  0  0  0  0  0  0  0  0  0
   -3.1974   -0.5923   -0.1708 C   0  0  0  0  0  0  0  0  0  0  0  0
   -3.5005    0.5652    0.1960 C   0  0  0  0  0  0  0  0  0  0  0  0
   -4.2411    1.5358   -0.4478 C   0  0  0  0  0  0  0  0  0  0  0  0
   -4.6776    1.0467   -1.6984 C   0  0  0  0  0  0  0  0  0  0  0  0
   -4.3553   -0.2526   -2.1519 C   0  0  0  0  0  0  0  0  0  0  0  0
   -3.4095   -2.1763   -1.7010 H   0  0  0  0  0  0  0  0  0  0  0  0
   -5.2801    1.6889   -2.3329 H   0  0  0  0  0  0  0  0  0  0  0  0
   -4.4890    2.5272   -0.0889 H   0  0  0  0  0  0  0  0  0  0  0  0
   -1.3195   -0.9191   -3.1853 N   0  0  0  0  0  0  0  0  0  0  0  0
   -1.1897   -1.8189   -3.8325 N   0  0  0  0  0  0  0  0  0  0  0  0
   -0.9897   -2.9406   -4.6112 C   0  0  0  0  0  0  0  0  0  0  0  0
   -2.1113   -3.5696   -5.1854 C   0  0  0  0  0  0  0  0  0  0  0  0
    0.3405   -3.3849   -4.7733 C   0  0  0  0  0  0  0  0  0  0  0  0
   -1.8693   -4.7008   -5.9542 C   0  0  0  0  0  0  0  0  0  0  0  0
   -3.1033   -3.1634   -5.0222 H   0  0  0  0  0  0  0  0  0  0  0  0
    0.5367   -4.5163   -5.5451 C   0  0  0  0  0  0  0  0  0  0  0  0
    1.1660   -2.8585   -4.3078 H   0  0  0  0  0  0  0  0  0  0  0  0
   -0.5594   -5.1723   -6.1316 C   0  0  0  0  0  0  0  0  0  0  0  0
   -2.6964   -5.2240   -6.4187 H   0  0  0  0  0  0  0  0  0  0  0  0
    1.5316   -4.9151   -5.7099 H   0  0  0  0  0  0  0  0  0  0  0  0
   -0.2574   -6.3988   -6.9526 C   0  0  0  0  0  0  0  0  0  0  0  0
    0.8658   -6.8183   -7.1098 O   0  0  0  0  0  0  0  0  0  0  0  0
   -1.3662   -6.9495   -7.4678 O   0  0  0  0  0  0  0  0  0  0  0  0
   -1.1010   -7.7353   -7.9773 H   0  0  0  0  0  0  0  0  0  0  0  0
   -4.7543   -0.7135   -3.5049 C   0  0  0  0  0  0  0  0  0  0  0  0
   -4.1989   -1.6331   -4.0960 O   0  0  0  0  0  0  0  0  0  0  0  0
   -5.7690   -0.0243   -4.0411 O   0  0  0  0  0  0  0  0  0  0  0  0
   -5.9444   -0.3901   -4.9248 H   0  0  0  0  0  0  0  0  0  0  0  0
  1  2  2  0  0  0  0
  2  3  1  0  0  0  0
  4  9  1  0  0  0  0
  4  3  2  0  0  0  0
  5  4  1  0  0  0  0
  6  5  2  0  0  0  0
  6  1  1  0  0  0  0
  7  1  1  0  0  0  0
  8  5  1  0  0  0  0
 11 10  1  0  0  0  0
 12 11  1  0  0  0  0
 13 16  1  0  0  0  0
 13 12  2  0  0  0  0
 14 12  1  0  0  0  0
 14 18  1  0  0  0  0
 15 13  1  0  0  0  0
 17 14  2  0  0  0  0
 19 15  2  0  0  0  0
 19 17  1  0  0  0  0
 20 15  1  0  0  0  0
 21 17  1  0  0  0  0
 22 19  1  0  0  0  0
 23 22  2  0  0  0  0
 24 22  1  0  0  0  0
 25 24  1  0  0  0  0
 26  6  1  0  0  0  0
 27 26  2  0  0  0  0
 28 26  1  0  0  0  0
 29 28  1  0  0  0  0
M  RAD  4   2   2   3   2  10   3  11   2
M  END
