Coordinates from ORCA-job 1g-Schema5-R8-G+-B3LYPG-6-31G_dp-scan-d49-09-n400
 OpenBabel08281819463D

 29 31  0  0  1  0  0  0  0  0999 V2000
   -4.0793   -1.7059   -1.6526 C   0  0  0  0  0  0  0  0  0  0  0  0
   -3.2732   -2.6165   -2.3218 C   0  0  0  0  0  0  0  0  0  0  0  0
   -3.0206   -2.5548   -3.6907 C   0  0  0  0  0  0  0  0  0  0  0  0
   -3.6117   -1.5330   -4.4279 C   0  0  0  0  0  0  0  0  0  0  0  0
   -4.4061   -0.5815   -3.7721 C   0  0  0  0  0  0  0  0  0  0  0  0
   -4.6456   -0.6646   -2.3942 C   0  0  0  0  0  0  0  0  0  0  0  0
   -4.2718   -1.7961   -0.5887 H   0  0  0  0  0  0  0  0  0  0  0  0
   -4.8380    0.2370   -4.3369 H   0  0  0  0  0  0  0  0  0  0  0  0
   -3.4532   -1.4474   -5.4979 H   0  0  0  0  0  0  0  0  0  0  0  0
   -2.7047   -3.8235   -1.4910 N   0  0  0  0  0  0  0  0  0  0  0  0
   -1.7192   -4.4043   -1.9939 N   0  0  0  0  0  0  0  0  0  0  0  0
   -1.2397   -4.1764   -3.2636 C   0  0  0  0  0  0  0  0  0  0  0  0
   -2.1849   -3.7040   -4.3084 C   0  0  2  0  0  0  0  0  0  0  0  0
    0.1093   -4.3986   -3.5254 C   0  0  0  0  0  0  0  0  0  0  0  0
   -1.5769   -3.4810   -5.6448 C   0  0  0  0  0  0  0  0  0  0  0  0
   -2.9345   -4.5070   -4.4825 H   0  0  0  0  0  0  0  0  0  0  0  0
    0.5980   -4.1290   -4.7976 C   0  0  0  0  0  0  0  0  0  0  0  0
    0.7576   -4.7460   -2.7278 H   0  0  0  0  0  0  0  0  0  0  0  0
   -0.2462   -3.6863   -5.8635 C   0  0  0  0  0  0  0  0  0  0  0  0
   -2.2283   -3.2154   -6.4708 H   0  0  0  0  0  0  0  0  0  0  0  0
    1.6531   -4.2587   -5.0242 H   0  0  0  0  0  0  0  0  0  0  0  0
    0.4063   -3.4783   -7.2042 C   0  0  0  0  0  0  0  0  0  0  0  0
    1.5919   -3.6328   -7.3773 O   0  0  0  0  0  0  0  0  0  0  0  0
   -0.4771   -3.1086   -8.1425 O   0  0  0  0  0  0  0  0  0  0  0  0
    0.0039   -2.9897   -8.9806 H   0  0  0  0  0  0  0  0  0  0  0  0
   -5.5026    0.3235   -1.6596 C   0  0  0  0  0  0  0  0  0  0  0  0
   -5.7194    0.2572   -0.4713 O   0  0  0  0  0  0  0  0  0  0  0  0
   -5.9901    1.2783   -2.4721 O   0  0  0  0  0  0  0  0  0  0  0  0
   -6.5289    1.8777   -1.9274 H   0  0  0  0  0  0  0  0  0  0  0  0
  1  7  1  0  0  0  0
  2  1  1  0  0  0  0
  2 10  1  0  0  0  0
  3  2  2  0  0  0  0
  4  5  2  0  0  0  0
  4  3  1  0  0  0  0
  5  6  1  0  0  0  0
  6 26  1  0  0  0  0
  6  1  2  0  0  0  0
  8  5  1  0  0  0  0
  9  4  1  0  0  0  0
 11 10  2  0  0  0  0
 12 11  1  0  0  0  0
 13 16  1  6  0  0  0
 13  3  1  0  0  0  0
 13 12  1  0  0  0  0
 14 12  2  0  0  0  0
 14 18  1  0  0  0  0
 15 13  1  0  0  0  0
 17 14  1  0  0  0  0
 19 15  2  0  0  0  0
 19 17  1  0  0  0  0
 20 15  1  0  0  0  0
 21 17  1  0  0  0  0
 22 19  1  0  0  0  0
 23 22  2  0  0  0  0
 24 22  1  0  0  0  0
 25 24  1  0  0  0  0
 26 27  2  0  0  0  0
 28 29  1  0  0  0  0
 28 26  1  0  0  0  0
M  RAD  1  17   2
M  END
