Coordinates from ORCA-job 1g-Schema5-R8-G+-B3LYPG-6-31G_dp-scan-d49-09-n400
 OpenBabel08281819463D

 29 29  0  0  0  0  0  0  0  0999 V2000
   -3.5177   -1.2972   -1.8272 C   0  0  0  0  0  0  0  0  0  0  0  0
   -2.7208   -0.5198   -0.9948 C   0  0  0  0  0  0  0  0  0  0  0  0
   -2.9397    0.7110   -0.8682 C   0  0  0  0  0  0  0  0  0  0  0  0
   -3.8389    1.5737   -1.4459 C   0  0  0  0  0  0  0  0  0  0  0  0
   -4.6583    0.8380   -2.3333 C   0  0  0  0  0  0  0  0  0  0  0  0
   -4.4897   -0.5496   -2.5348 C   0  0  0  0  0  0  0  0  0  0  0  0
   -3.4435   -2.3713   -1.9660 H   0  0  0  0  0  0  0  0  0  0  0  0
   -5.4447    1.3583   -2.8709 H   0  0  0  0  0  0  0  0  0  0  0  0
   -3.9631    2.6345   -1.2668 H   0  0  0  0  0  0  0  0  0  0  0  0
   -0.4778   -1.4727   -1.9130 N   0  0  0  0  0  0  0  0  0  0  0  0
   -0.5303   -2.1785   -2.7814 N   0  0  0  0  0  0  0  0  0  0  0  0
   -0.5914   -3.0504   -3.8504 C   0  0  0  0  0  0  0  0  0  0  0  0
   -1.8383   -3.3094   -4.4539 C   0  0  0  0  0  0  0  0  0  0  0  0
    0.6241   -3.6351   -4.2684 C   0  0  0  0  0  0  0  0  0  0  0  0
   -1.8466   -4.2009   -5.5192 C   0  0  0  0  0  0  0  0  0  0  0  0
   -2.7623   -2.8470   -4.1155 H   0  0  0  0  0  0  0  0  0  0  0  0
    0.5721   -4.5161   -5.3339 C   0  0  0  0  0  0  0  0  0  0  0  0
    1.5556   -3.3978   -3.7668 H   0  0  0  0  0  0  0  0  0  0  0  0
   -0.6554   -4.8000   -5.9563 C   0  0  0  0  0  0  0  0  0  0  0  0
   -2.7833   -4.4333   -6.0113 H   0  0  0  0  0  0  0  0  0  0  0  0
    1.4688   -5.0004   -5.7040 H   0  0  0  0  0  0  0  0  0  0  0  0
   -0.6260   -5.7732   -7.1058 C   0  0  0  0  0  0  0  0  0  0  0  0
    0.3936   -6.2955   -7.4930 O   0  0  0  0  0  0  0  0  0  0  0  0
   -1.8440   -5.9770   -7.6285 O   0  0  0  0  0  0  0  0  0  0  0  0
   -1.7525   -6.6113   -8.3611 H   0  0  0  0  0  0  0  0  0  0  0  0
   -5.2734   -1.2926   -3.5627 C   0  0  0  0  0  0  0  0  0  0  0  0
   -4.9070   -2.3534   -4.0455 O   0  0  0  0  0  0  0  0  0  0  0  0
   -6.4068   -0.6772   -3.9246 O   0  0  0  0  0  0  0  0  0  0  0  0
   -6.8347   -1.2215   -4.6082 H   0  0  0  0  0  0  0  0  0  0  0  0
  1  2  2  0  0  0  0
  2  3  1  0  0  0  0
  4  9  1  0  0  0  0
  4  3  2  0  0  0  0
  5  4  1  0  0  0  0
  6  5  2  0  0  0  0
  6  1  1  0  0  0  0
  7  1  1  0  0  0  0
  8  5  1  0  0  0  0
 11 10  1  0  0  0  0
 12 11  1  0  0  0  0
 13 16  1  0  0  0  0
 13 12  2  0  0  0  0
 14 12  1  0  0  0  0
 14 18  1  0  0  0  0
 15 13  1  0  0  0  0
 17 14  2  0  0  0  0
 19 15  2  0  0  0  0
 19 17  1  0  0  0  0
 20 15  1  0  0  0  0
 21 17  1  0  0  0  0
 22 19  1  0  0  0  0
 23 22  2  0  0  0  0
 24 22  1  0  0  0  0
 25 24  1  0  0  0  0
 26  6  1  0  0  0  0
 27 26  2  0  0  0  0
 28 26  1  0  0  0  0
 29 28  1  0  0  0  0
M  RAD  4   2   2   3   2  10   3  11   2
M  END
