Coordinates from ORCA-job 1g-Schema5-R8-G+-B3LYPG-6-31G_dp-scan-d49-09-n400
 OpenBabel08281819463D

 29 29  0  0  0  0  0  0  0  0999 V2000
   -3.6791   -1.3051   -1.4768 C   0  0  0  0  0  0  0  0  0  0  0  0
   -3.1700   -0.7715   -0.3087 C   0  0  0  0  0  0  0  0  0  0  0  0
   -3.3358    0.4135    0.0579 C   0  0  0  0  0  0  0  0  0  0  0  0
   -4.0038    1.4508   -0.5599 C   0  0  0  0  0  0  0  0  0  0  0  0
   -4.5509    1.0004   -1.7817 C   0  0  0  0  0  0  0  0  0  0  0  0
   -4.3855   -0.3275   -2.2357 C   0  0  0  0  0  0  0  0  0  0  0  0
   -3.6110   -2.3329   -1.8165 H   0  0  0  0  0  0  0  0  0  0  0  0
   -5.1182    1.6959   -2.3918 H   0  0  0  0  0  0  0  0  0  0  0  0
   -4.1324    2.4645   -0.2000 H   0  0  0  0  0  0  0  0  0  0  0  0
   -1.3692   -0.8972   -3.0784 N   0  0  0  0  0  0  0  0  0  0  0  0
   -1.2069   -1.7825   -3.7404 N   0  0  0  0  0  0  0  0  0  0  0  0
   -0.9942   -2.8929   -4.5309 C   0  0  0  0  0  0  0  0  0  0  0  0
   -2.1175   -3.5387   -5.0826 C   0  0  0  0  0  0  0  0  0  0  0  0
    0.3398   -3.3112   -4.7253 C   0  0  0  0  0  0  0  0  0  0  0  0
   -1.8737   -4.6620   -5.8624 C   0  0  0  0  0  0  0  0  0  0  0  0
   -3.1133   -3.1490   -4.8962 H   0  0  0  0  0  0  0  0  0  0  0  0
    0.5379   -4.4356   -5.5068 C   0  0  0  0  0  0  0  0  0  0  0  0
    1.1659   -2.7721   -4.2757 H   0  0  0  0  0  0  0  0  0  0  0  0
   -0.5598   -5.1087   -6.0713 C   0  0  0  0  0  0  0  0  0  0  0  0
   -2.7019   -5.1973   -6.3108 H   0  0  0  0  0  0  0  0  0  0  0  0
    1.5355   -4.8161   -5.6965 H   0  0  0  0  0  0  0  0  0  0  0  0
   -0.2545   -6.3262   -6.9045 C   0  0  0  0  0  0  0  0  0  0  0  0
    0.8724   -6.7234   -7.0908 O   0  0  0  0  0  0  0  0  0  0  0  0
   -1.3647   -6.8956   -7.3957 O   0  0  0  0  0  0  0  0  0  0  0  0
   -1.0970   -7.6741   -7.9150 H   0  0  0  0  0  0  0  0  0  0  0  0
   -4.8954   -0.7548   -3.5645 C   0  0  0  0  0  0  0  0  0  0  0  0
   -4.4612   -1.7228   -4.1756 O   0  0  0  0  0  0  0  0  0  0  0  0
   -5.8658    0.0285   -4.0522 O   0  0  0  0  0  0  0  0  0  0  0  0
   -6.1216   -0.3221   -4.9226 H   0  0  0  0  0  0  0  0  0  0  0  0
  1  2  2  0  0  0  0
  2  3  1  0  0  0  0
  4  9  1  0  0  0  0
  4  3  2  0  0  0  0
  5  4  1  0  0  0  0
  6  5  2  0  0  0  0
  6  1  1  0  0  0  0
  7  1  1  0  0  0  0
  8  5  1  0  0  0  0
 11 10  1  0  0  0  0
 12 11  1  0  0  0  0
 13 16  1  0  0  0  0
 13 12  2  0  0  0  0
 14 12  1  0  0  0  0
 14 18  1  0  0  0  0
 15 13  1  0  0  0  0
 17 14  2  0  0  0  0
 19 15  2  0  0  0  0
 19 17  1  0  0  0  0
 20 15  1  0  0  0  0
 21 17  1  0  0  0  0
 22 19  1  0  0  0  0
 23 22  2  0  0  0  0
 24 22  1  0  0  0  0
 25 24  1  0  0  0  0
 26  6  1  0  0  0  0
 27 26  2  0  0  0  0
 28 26  1  0  0  0  0
 29 28  1  0  0  0  0
M  RAD  4   2   2   3   2  10   3  11   2
M  END
