Coordinates from ORCA-job 1g-Schema5-R8-G+-B3LYPG-6-31G_dp-scan-d49-09-n400
 OpenBabel08281819463D

 29 29  0  0  0  0  0  0  0  0999 V2000
   -3.5180   -0.9344   -1.1840 C   0  0  0  0  0  0  0  0  0  0  0  0
   -3.2934   -0.2865    0.0127 C   0  0  0  0  0  0  0  0  0  0  0  0
   -3.7757    0.8265    0.3199 C   0  0  0  0  0  0  0  0  0  0  0  0
   -4.5938    1.6687   -0.4059 C   0  0  0  0  0  0  0  0  0  0  0  0
   -4.8716    1.0918   -1.6634 C   0  0  0  0  0  0  0  0  0  0  0  0
   -4.3440   -0.1625   -2.0494 C   0  0  0  0  0  0  0  0  0  0  0  0
   -3.1710   -1.9195   -1.4727 H   0  0  0  0  0  0  0  0  0  0  0  0
   -5.5098    1.6285   -2.3582 H   0  0  0  0  0  0  0  0  0  0  0  0
   -4.9955    2.6271   -0.1007 H   0  0  0  0  0  0  0  0  0  0  0  0
   -1.1393   -1.0293   -3.1740 N   0  0  0  0  0  0  0  0  0  0  0  0
   -1.0258   -1.9216   -3.8322 N   0  0  0  0  0  0  0  0  0  0  0  0
   -0.8770   -3.0308   -4.6383 C   0  0  0  0  0  0  0  0  0  0  0  0
   -2.0320   -3.5982   -5.2114 C   0  0  0  0  0  0  0  0  0  0  0  0
    0.4314   -3.5235   -4.8314 C   0  0  0  0  0  0  0  0  0  0  0  0
   -1.8467   -4.7160   -6.0145 C   0  0  0  0  0  0  0  0  0  0  0  0
   -3.0042   -3.1582   -5.0185 H   0  0  0  0  0  0  0  0  0  0  0  0
    0.5708   -4.6395   -5.6373 C   0  0  0  0  0  0  0  0  0  0  0  0
    1.2839   -3.0437   -4.3642 H   0  0  0  0  0  0  0  0  0  0  0  0
   -0.5593   -5.2337   -6.2252 C   0  0  0  0  0  0  0  0  0  0  0  0
   -2.7004   -5.1934   -6.4800 H   0  0  0  0  0  0  0  0  0  0  0  0
    1.5462   -5.0730   -5.8285 H   0  0  0  0  0  0  0  0  0  0  0  0
   -0.3191   -6.4472   -7.0855 C   0  0  0  0  0  0  0  0  0  0  0  0
    0.7835   -6.9076   -7.2706 O   0  0  0  0  0  0  0  0  0  0  0  0
   -1.4562   -6.9336   -7.6037 O   0  0  0  0  0  0  0  0  0  0  0  0
   -1.2309   -7.7135   -8.1408 H   0  0  0  0  0  0  0  0  0  0  0  0
   -4.6031   -0.7167   -3.3992 C   0  0  0  0  0  0  0  0  0  0  0  0
   -3.9322   -1.6104   -3.9082 O   0  0  0  0  0  0  0  0  0  0  0  0
   -5.6342   -0.1478   -4.0368 O   0  0  0  0  0  0  0  0  0  0  0  0
   -5.7144   -0.5678   -4.9096 H   0  0  0  0  0  0  0  0  0  0  0  0
  1  2  2  0  0  0  0
  2  3  1  0  0  0  0
  4  9  1  0  0  0  0
  4  3  2  0  0  0  0
  5  4  1  0  0  0  0
  6  5  2  0  0  0  0
  6  1  1  0  0  0  0
  7  1  1  0  0  0  0
  8  5  1  0  0  0  0
 11 10  1  0  0  0  0
 12 11  1  0  0  0  0
 13 16  1  0  0  0  0
 13 12  2  0  0  0  0
 14 12  1  0  0  0  0
 14 18  1  0  0  0  0
 15 13  1  0  0  0  0
 17 14  2  0  0  0  0
 19 15  2  0  0  0  0
 19 17  1  0  0  0  0
 20 15  1  0  0  0  0
 21 17  1  0  0  0  0
 22 19  1  0  0  0  0
 23 22  2  0  0  0  0
 24 22  1  0  0  0  0
 25 24  1  0  0  0  0
 26  6  1  0  0  0  0
 27 26  2  0  0  0  0
 28 26  1  0  0  0  0
 29 28  1  0  0  0  0
M  RAD  4   2   2   3   2  10   3  11   2
M  END
