Coordinates from ORCA-job 1g-Schema5-R8-G+-B3LYPG-6-31G_dp-scan-d49-09-n400
 OpenBabel08281819463D

 29 29  0  0  0  0  0  0  0  0999 V2000
   -3.9940   -1.4119   -2.0293 C   0  0  0  0  0  0  0  0  0  0  0  0
   -2.7038   -0.9835   -2.3835 C   0  0  0  0  0  0  0  0  0  0  0  0
   -2.6193    0.2028   -2.8429 C   0  0  0  0  0  0  0  0  0  0  0  0
   -3.4609    1.2222   -3.1643 C   0  0  0  0  0  0  0  0  0  0  0  0
   -4.7674    0.7921   -2.8197 C   0  0  0  0  0  0  0  0  0  0  0  0
   -5.0244   -0.4829   -2.2773 C   0  0  0  0  0  0  0  0  0  0  0  0
   -4.2207   -2.3830   -1.6004 H   0  0  0  0  0  0  0  0  0  0  0  0
   -5.5885    1.4859   -2.9720 H   0  0  0  0  0  0  0  0  0  0  0  0
   -3.2345    2.1990   -3.5711 H   0  0  0  0  0  0  0  0  0  0  0  0
   -1.2304   -2.1150   -1.7200 N   0  0  0  0  0  0  0  0  0  0  0  0
   -0.7304   -2.8632   -2.4373 N   0  0  0  0  0  0  0  0  0  0  0  0
   -0.5451   -3.4704   -3.6736 C   0  0  0  0  0  0  0  0  0  0  0  0
   -1.3577   -3.1058   -4.7643 C   0  0  0  0  0  0  0  0  0  0  0  0
    0.4660   -4.4422   -3.7657 C   0  0  0  0  0  0  0  0  0  0  0  0
   -1.1357   -3.7407   -5.9778 C   0  0  0  0  0  0  0  0  0  0  0  0
   -2.1316   -2.3558   -4.6515 H   0  0  0  0  0  0  0  0  0  0  0  0
    0.6689   -5.0603   -4.9909 C   0  0  0  0  0  0  0  0  0  0  0  0
    1.0628   -4.6902   -2.8950 H   0  0  0  0  0  0  0  0  0  0  0  0
   -0.1265   -4.7121   -6.0919 C   0  0  0  0  0  0  0  0  0  0  0  0
   -1.7397   -3.4905   -6.8420 H   0  0  0  0  0  0  0  0  0  0  0  0
    1.4359   -5.8159   -5.1200 H   0  0  0  0  0  0  0  0  0  0  0  0
    0.1496   -5.4221   -7.3894 C   0  0  0  0  0  0  0  0  0  0  0  0
    1.0128   -6.2603   -7.5099 O   0  0  0  0  0  0  0  0  0  0  0  0
   -0.6657   -5.0135   -8.3764 O   0  0  0  0  0  0  0  0  0  0  0  0
   -0.4304   -5.5117   -9.1784 H   0  0  0  0  0  0  0  0  0  0  0  0
   -6.4161   -0.9237   -1.9260 C   0  0  0  0  0  0  0  0  0  0  0  0
   -6.6733   -2.0215   -1.4856 O   0  0  0  0  0  0  0  0  0  0  0  0
   -7.3326    0.0336   -2.1573 O   0  0  0  0  0  0  0  0  0  0  0  0
   -8.1989   -0.3251   -1.8979 H   0  0  0  0  0  0  0  0  0  0  0  0
  1  7  1  0  0  0  0
  2  1  2  0  0  0  0
  3  2  1  0  0  0  0
  4  3  2  0  0  0  0
  4  5  1  0  0  0  0
  5  6  2  0  0  0  0
  6  1  1  0  0  0  0
  6 26  1  0  0  0  0
  8  5  1  0  0  0  0
  9  4  1  0  0  0  0
 11 10  2  0  0  0  0
 12 11  1  0  0  0  0
 13 16  1  0  0  0  0
 13 12  2  0  0  0  0
 14 12  1  0  0  0  0
 14 18  1  0  0  0  0
 15 13  1  0  0  0  0
 17 14  2  0  0  0  0
 19 15  2  0  0  0  0
 19 17  1  0  0  0  0
 20 15  1  0  0  0  0
 21 17  1  0  0  0  0
 22 19  1  0  0  0  0
 23 22  2  0  0  0  0
 24 22  1  0  0  0  0
 25 24  1  0  0  0  0
 26 27  2  0  0  0  0
 28 26  1  0  0  0  0
 28 29  1  0  0  0  0
M  RAD  3   2   2   3   2  10   2
M  END
