Coordinates from ORCA-job 1g-Schema5-R8-G+-B3LYPG-6-31G_dp-scan-d49-09-n400
 OpenBabel08281819463D

 29 29  0  0  0  0  0  0  0  0999 V2000
   -3.9938   -1.4005   -2.0414 C   0  0  0  0  0  0  0  0  0  0  0  0
   -2.7101   -0.9528   -2.3938 C   0  0  0  0  0  0  0  0  0  0  0  0
   -2.6357    0.2385   -2.8378 C   0  0  0  0  0  0  0  0  0  0  0  0
   -3.4883    1.2560   -3.1386 C   0  0  0  0  0  0  0  0  0  0  0  0
   -4.7893    0.8090   -2.7955 C   0  0  0  0  0  0  0  0  0  0  0  0
   -5.0332   -0.4762   -2.2711 C   0  0  0  0  0  0  0  0  0  0  0  0
   -4.2115   -2.3791   -1.6254 H   0  0  0  0  0  0  0  0  0  0  0  0
   -5.6177    1.4966   -2.9358 H   0  0  0  0  0  0  0  0  0  0  0  0
   -3.2727    2.2402   -3.5332 H   0  0  0  0  0  0  0  0  0  0  0  0
   -1.2026   -2.0956   -1.7361 N   0  0  0  0  0  0  0  0  0  0  0  0
   -0.7185   -2.8427   -2.4614 N   0  0  0  0  0  0  0  0  0  0  0  0
   -0.5327   -3.4646   -3.6890 C   0  0  0  0  0  0  0  0  0  0  0  0
   -1.3252   -3.0846   -4.7894 C   0  0  0  0  0  0  0  0  0  0  0  0
    0.4558   -4.4607   -3.7650 C   0  0  0  0  0  0  0  0  0  0  0  0
   -1.1066   -3.7308   -5.9974 C   0  0  0  0  0  0  0  0  0  0  0  0
   -2.0798   -2.3134   -4.6867 H   0  0  0  0  0  0  0  0  0  0  0  0
    0.6542   -5.0904   -4.9850 C   0  0  0  0  0  0  0  0  0  0  0  0
    1.0384   -4.7184   -2.8876 H   0  0  0  0  0  0  0  0  0  0  0  0
   -0.1213   -4.7280   -6.0958 C   0  0  0  0  0  0  0  0  0  0  0  0
   -1.6945   -3.4694   -6.8693 H   0  0  0  0  0  0  0  0  0  0  0  0
    1.4030   -5.8659   -5.1028 H   0  0  0  0  0  0  0  0  0  0  0  0
    0.1507   -5.4514   -7.3869 C   0  0  0  0  0  0  0  0  0  0  0  0
    0.9922   -6.3132   -7.4932 O   0  0  0  0  0  0  0  0  0  0  0  0
   -0.6426   -5.0265   -8.3846 O   0  0  0  0  0  0  0  0  0  0  0  0
   -0.4121   -5.5345   -9.1819 H   0  0  0  0  0  0  0  0  0  0  0  0
   -6.4193   -0.9338   -1.9206 C   0  0  0  0  0  0  0  0  0  0  0  0
   -6.6658   -2.0399   -1.4948 O   0  0  0  0  0  0  0  0  0  0  0  0
   -7.3455    0.0185   -2.1344 O   0  0  0  0  0  0  0  0  0  0  0  0
   -8.2072   -0.3522   -1.8766 H   0  0  0  0  0  0  0  0  0  0  0  0
  1  7  1  0  0  0  0
  2  1  2  0  0  0  0
  3  2  1  0  0  0  0
  4  3  2  0  0  0  0
  4  5  1  0  0  0  0
  5  6  2  0  0  0  0
  6  1  1  0  0  0  0
  6 26  1  0  0  0  0
  8  5  1  0  0  0  0
  9  4  1  0  0  0  0
 11 10  2  0  0  0  0
 12 11  1  0  0  0  0
 13 16  1  0  0  0  0
 13 12  2  0  0  0  0
 14 12  1  0  0  0  0
 14 18  1  0  0  0  0
 15 13  1  0  0  0  0
 17 14  2  0  0  0  0
 19 15  2  0  0  0  0
 19 17  1  0  0  0  0
 20 15  1  0  0  0  0
 21 17  1  0  0  0  0
 22 19  1  0  0  0  0
 23 22  2  0  0  0  0
 24 22  1  0  0  0  0
 25 24  1  0  0  0  0
 26 27  2  0  0  0  0
 28 26  1  0  0  0  0
 28 29  1  0  0  0  0
M  RAD  3   2   2   3   2  10   2
M  END
