Coordinates from ORCA-job 1g-Schema5-R8-G+-B3LYPG-6-31G_dp-scan-d49-09-n400
 OpenBabel08281819463D

 29 29  0  0  0  0  0  0  0  0999 V2000
   -3.6656   -1.2732   -1.4455 C   0  0  0  0  0  0  0  0  0  0  0  0
   -3.1682   -0.7256   -0.2791 C   0  0  0  0  0  0  0  0  0  0  0  0
   -3.3535    0.4585    0.0812 C   0  0  0  0  0  0  0  0  0  0  0  0
   -4.0338    1.4826   -0.5451 C   0  0  0  0  0  0  0  0  0  0  0  0
   -4.5683    1.0181   -1.7673 C   0  0  0  0  0  0  0  0  0  0  0  0
   -4.3811   -0.3093   -2.2134 C   0  0  0  0  0  0  0  0  0  0  0  0
   -3.5826   -2.3021   -1.7782 H   0  0  0  0  0  0  0  0  0  0  0  0
   -5.1424    1.7023   -2.3839 H   0  0  0  0  0  0  0  0  0  0  0  0
   -4.1792    2.4961   -0.1909 H   0  0  0  0  0  0  0  0  0  0  0  0
   -1.3765   -0.9169   -3.0868 N   0  0  0  0  0  0  0  0  0  0  0  0
   -1.2253   -1.8027   -3.7505 N   0  0  0  0  0  0  0  0  0  0  0  0
   -1.0104   -2.9116   -4.5433 C   0  0  0  0  0  0  0  0  0  0  0  0
   -2.1271   -3.5555   -5.1102 C   0  0  0  0  0  0  0  0  0  0  0  0
    0.3256   -3.3300   -4.7246 C   0  0  0  0  0  0  0  0  0  0  0  0
   -1.8739   -4.6758   -5.8914 C   0  0  0  0  0  0  0  0  0  0  0  0
   -3.1253   -3.1681   -4.9347 H   0  0  0  0  0  0  0  0  0  0  0  0
    0.5330   -4.4515   -5.5079 C   0  0  0  0  0  0  0  0  0  0  0  0
    1.1467   -2.7926   -4.2639 H   0  0  0  0  0  0  0  0  0  0  0  0
   -0.5580   -5.1223   -6.0872 C   0  0  0  0  0  0  0  0  0  0  0  0
   -2.6970   -5.2094   -6.3512 H   0  0  0  0  0  0  0  0  0  0  0  0
    1.5328   -4.8311   -5.6873 H   0  0  0  0  0  0  0  0  0  0  0  0
   -0.2436   -6.3367   -6.9214 C   0  0  0  0  0  0  0  0  0  0  0  0
    0.8852   -6.7335   -7.0966 O   0  0  0  0  0  0  0  0  0  0  0  0
   -1.3483   -6.9037   -7.4280 O   0  0  0  0  0  0  0  0  0  0  0  0
   -1.0747   -7.6800   -7.9474 H   0  0  0  0  0  0  0  0  0  0  0  0
   -4.8691   -0.7483   -3.5461 C   0  0  0  0  0  0  0  0  0  0  0  0
   -4.3992   -1.7018   -4.1546 O   0  0  0  0  0  0  0  0  0  0  0  0
   -5.8578    0.0063   -4.0410 O   0  0  0  0  0  0  0  0  0  0  0  0
   -6.0944   -0.3482   -4.9152 H   0  0  0  0  0  0  0  0  0  0  0  0
  1  2  2  0  0  0  0
  2  3  1  0  0  0  0
  4  9  1  0  0  0  0
  4  3  2  0  0  0  0
  5  4  1  0  0  0  0
  6  5  2  0  0  0  0
  6  1  1  0  0  0  0
  7  1  1  0  0  0  0
  8  5  1  0  0  0  0
 11 10  1  0  0  0  0
 12 11  1  0  0  0  0
 13 16  1  0  0  0  0
 13 12  2  0  0  0  0
 14 12  1  0  0  0  0
 14 18  1  0  0  0  0
 15 13  1  0  0  0  0
 17 14  2  0  0  0  0
 19 15  2  0  0  0  0
 19 17  1  0  0  0  0
 20 15  1  0  0  0  0
 21 17  1  0  0  0  0
 22 19  1  0  0  0  0
 23 22  2  0  0  0  0
 24 22  1  0  0  0  0
 25 24  1  0  0  0  0
 26  6  1  0  0  0  0
 27 26  2  0  0  0  0
 28 26  1  0  0  0  0
 29 28  1  0  0  0  0
M  RAD  4   2   2   3   2  10   3  11   2
M  END
