Coordinates from ORCA-job 1g-Schema5-R8-G+-B3LYPG-6-31G_dp-scan-d49-09-n400
 OpenBabel08281819463D

 29 29  0  0  0  0  0  0  0  0999 V2000
   -3.4604   -1.2602   -1.9259 C   0  0  0  0  0  0  0  0  0  0  0  0
   -2.6015   -0.4712   -1.1667 C   0  0  0  0  0  0  0  0  0  0  0  0
   -2.8541    0.7537   -1.0265 C   0  0  0  0  0  0  0  0  0  0  0  0
   -3.8183    1.5972   -1.5161 C   0  0  0  0  0  0  0  0  0  0  0  0
   -4.6958    0.8401   -2.3278 C   0  0  0  0  0  0  0  0  0  0  0  0
   -4.5095   -0.5426   -2.5439 C   0  0  0  0  0  0  0  0  0  0  0  0
   -3.3719   -2.3316   -2.0756 H   0  0  0  0  0  0  0  0  0  0  0  0
   -5.5383    1.3414   -2.7935 H   0  0  0  0  0  0  0  0  0  0  0  0
   -3.9495    2.6549   -1.3251 H   0  0  0  0  0  0  0  0  0  0  0  0
   -0.4740   -1.5339   -1.8486 N   0  0  0  0  0  0  0  0  0  0  0  0
   -0.5343   -2.2289   -2.7279 N   0  0  0  0  0  0  0  0  0  0  0  0
   -0.5932   -3.0821   -3.8131 C   0  0  0  0  0  0  0  0  0  0  0  0
   -1.8226   -3.2839   -4.4726 C   0  0  0  0  0  0  0  0  0  0  0  0
    0.6134   -3.7088   -4.1938 C   0  0  0  0  0  0  0  0  0  0  0  0
   -1.8222   -4.1563   -5.5536 C   0  0  0  0  0  0  0  0  0  0  0  0
   -2.7411   -2.7937   -4.1617 H   0  0  0  0  0  0  0  0  0  0  0  0
    0.5721   -4.5694   -5.2765 C   0  0  0  0  0  0  0  0  0  0  0  0
    1.5321   -3.5169   -3.6506 H   0  0  0  0  0  0  0  0  0  0  0  0
   -0.6381   -4.7942   -5.9537 C   0  0  0  0  0  0  0  0  0  0  0  0
   -2.7463   -4.3449   -6.0866 H   0  0  0  0  0  0  0  0  0  0  0  0
    1.4642   -5.0822   -5.6181 H   0  0  0  0  0  0  0  0  0  0  0  0
   -0.5992   -5.7479   -7.1188 C   0  0  0  0  0  0  0  0  0  0  0  0
    0.4131   -6.3078   -7.4712 O   0  0  0  0  0  0  0  0  0  0  0  0
   -1.8004   -5.8899   -7.6982 O   0  0  0  0  0  0  0  0  0  0  0  0
   -1.7031   -6.5153   -8.4376 H   0  0  0  0  0  0  0  0  0  0  0  0
   -5.3509   -1.3131   -3.5053 C   0  0  0  0  0  0  0  0  0  0  0  0
   -4.9937   -2.3688   -4.0036 O   0  0  0  0  0  0  0  0  0  0  0  0
   -6.5213   -0.7252   -3.7864 O   0  0  0  0  0  0  0  0  0  0  0  0
   -6.9868   -1.2842   -4.4325 H   0  0  0  0  0  0  0  0  0  0  0  0
  1  2  2  0  0  0  0
  2  3  1  0  0  0  0
  4  9  1  0  0  0  0
  4  3  2  0  0  0  0
  5  4  1  0  0  0  0
  6  5  2  0  0  0  0
  6  1  1  0  0  0  0
  7  1  1  0  0  0  0
  8  5  1  0  0  0  0
 11 10  1  0  0  0  0
 12 11  1  0  0  0  0
 13 16  1  0  0  0  0
 13 12  2  0  0  0  0
 14 12  1  0  0  0  0
 14 18  1  0  0  0  0
 15 13  1  0  0  0  0
 17 14  2  0  0  0  0
 19 15  2  0  0  0  0
 19 17  1  0  0  0  0
 20 15  1  0  0  0  0
 21 17  1  0  0  0  0
 22 19  1  0  0  0  0
 23 22  2  0  0  0  0
 24 22  1  0  0  0  0
 25 24  1  0  0  0  0
 26  6  1  0  0  0  0
 27 26  2  0  0  0  0
 28 26  1  0  0  0  0
 29 28  1  0  0  0  0
M  RAD  4   2   2   3   2  10   3  11   2
M  END
