Coordinates from ORCA-job 1g-Schema5-R8-G+-B3LYPG-6-31G_dp-scan-d49-09-n400
 OpenBabel08281819463D

 29 29  0  0  0  0  0  0  0  0999 V2000
   -3.4429   -1.1935   -2.1313 C   0  0  0  0  0  0  0  0  0  0  0  0
   -2.4815   -0.4377   -1.4634 C   0  0  0  0  0  0  0  0  0  0  0  0
   -2.7479    0.7742   -1.2314 C   0  0  0  0  0  0  0  0  0  0  0  0
   -3.7822    1.6222   -1.5197 C   0  0  0  0  0  0  0  0  0  0  0  0
   -4.7608    0.8860   -2.2312 C   0  0  0  0  0  0  0  0  0  0  0  0
   -4.5865   -0.4784   -2.5434 C   0  0  0  0  0  0  0  0  0  0  0  0
   -3.3635   -2.2537   -2.3496 H   0  0  0  0  0  0  0  0  0  0  0  0
   -5.6683    1.3936   -2.5424 H   0  0  0  0  0  0  0  0  0  0  0  0
   -3.8945    2.6668   -1.2591 H   0  0  0  0  0  0  0  0  0  0  0  0
   -0.5317   -1.5840   -1.8433 N   0  0  0  0  0  0  0  0  0  0  0  0
   -0.5642   -2.2868   -2.7243 N   0  0  0  0  0  0  0  0  0  0  0  0
   -0.5896   -3.1352   -3.8147 C   0  0  0  0  0  0  0  0  0  0  0  0
   -1.7834   -3.3116   -4.5444 C   0  0  0  0  0  0  0  0  0  0  0  0
    0.6197   -3.7887   -4.1356 C   0  0  0  0  0  0  0  0  0  0  0  0
   -1.7455   -4.1796   -5.6276 C   0  0  0  0  0  0  0  0  0  0  0  0
   -2.7025   -2.8025   -4.2753 H   0  0  0  0  0  0  0  0  0  0  0  0
    0.6201   -4.6439   -5.2242 C   0  0  0  0  0  0  0  0  0  0  0  0
    1.5116   -3.6192   -3.5427 H   0  0  0  0  0  0  0  0  0  0  0  0
   -0.5550   -4.8409   -5.9668 C   0  0  0  0  0  0  0  0  0  0  0  0
   -2.6426   -4.3483   -6.2113 H   0  0  0  0  0  0  0  0  0  0  0  0
    1.5187   -5.1741   -5.5191 H   0  0  0  0  0  0  0  0  0  0  0  0
   -0.4745   -5.7906   -7.1326 C   0  0  0  0  0  0  0  0  0  0  0  0
    0.5425   -6.3715   -7.4342 O   0  0  0  0  0  0  0  0  0  0  0  0
   -1.6461   -5.9042   -7.7760 O   0  0  0  0  0  0  0  0  0  0  0  0
   -1.5227   -6.5285   -8.5123 H   0  0  0  0  0  0  0  0  0  0  0  0
   -5.5518   -1.2359   -3.3962 C   0  0  0  0  0  0  0  0  0  0  0  0
   -5.2707   -2.2903   -3.9376 O   0  0  0  0  0  0  0  0  0  0  0  0
   -6.7414   -0.6298   -3.5200 O   0  0  0  0  0  0  0  0  0  0  0  0
   -7.2945   -1.1796   -4.1018 H   0  0  0  0  0  0  0  0  0  0  0  0
  1  2  2  0  0  0  0
  2  3  1  0  0  0  0
  4  9  1  0  0  0  0
  4  3  2  0  0  0  0
  5  4  1  0  0  0  0
  6  5  2  0  0  0  0
  6  1  1  0  0  0  0
  7  1  1  0  0  0  0
  8  5  1  0  0  0  0
 11 10  1  0  0  0  0
 12 11  1  0  0  0  0
 13 16  1  0  0  0  0
 13 12  2  0  0  0  0
 14 12  1  0  0  0  0
 14 18  1  0  0  0  0
 15 13  1  0  0  0  0
 17 14  2  0  0  0  0
 19 15  2  0  0  0  0
 19 17  1  0  0  0  0
 20 15  1  0  0  0  0
 21 17  1  0  0  0  0
 22 19  1  0  0  0  0
 23 22  2  0  0  0  0
 24 22  1  0  0  0  0
 25 24  1  0  0  0  0
 26  6  1  0  0  0  0
 27 26  2  0  0  0  0
 28 26  1  0  0  0  0
 29 28  1  0  0  0  0
M  RAD  4   2   2   3   2  10   3  11   2
M  END
