Coordinates from ORCA-job 1g-Schema5-R8-G+-B3LYPG-6-31G_dp-scan-d49-09-n400
 OpenBabel08281819463D

 29 31  0  0  1  0  0  0  0  0999 V2000
   -4.0524   -1.6054   -1.6040 C   0  0  0  0  0  0  0  0  0  0  0  0
   -3.0768   -2.4685   -2.2366 C   0  0  0  0  0  0  0  0  0  0  0  0
   -2.9084   -2.3335   -3.6865 C   0  0  0  0  0  0  0  0  0  0  0  0
   -3.6418   -1.4017   -4.3933 C   0  0  0  0  0  0  0  0  0  0  0  0
   -4.5481   -0.5669   -3.7200 C   0  0  0  0  0  0  0  0  0  0  0  0
   -4.7643   -0.6730   -2.3303 C   0  0  0  0  0  0  0  0  0  0  0  0
   -4.1984   -1.7041   -0.5326 H   0  0  0  0  0  0  0  0  0  0  0  0
   -5.1000    0.1820   -4.2787 H   0  0  0  0  0  0  0  0  0  0  0  0
   -3.5226   -1.2865   -5.4658 H   0  0  0  0  0  0  0  0  0  0  0  0
   -2.4678   -3.1964   -1.5512 N   0  0  0  0  0  0  0  0  0  0  0  0
   -1.4514   -3.9774   -1.9277 N   0  0  0  0  0  0  0  0  0  0  0  0
   -1.1192   -3.9839   -3.2287 C   0  0  0  0  0  0  0  0  0  0  0  0
   -1.9772   -3.3432   -4.2762 C   0  0  2  0  0  0  0  0  0  0  0  0
    0.0542   -4.6714   -3.6196 C   0  0  0  0  0  0  0  0  0  0  0  0
   -1.3587   -3.1733   -5.6199 C   0  0  0  0  0  0  0  0  0  0  0  0
   -2.6804   -4.1942   -4.4956 H   0  0  0  0  0  0  0  0  0  0  0  0
    0.5050   -4.5728   -4.9142 C   0  0  0  0  0  0  0  0  0  0  0  0
    0.6039   -5.2138   -2.8580 H   0  0  0  0  0  0  0  0  0  0  0  0
   -0.1903   -3.8042   -5.9137 C   0  0  0  0  0  0  0  0  0  0  0  0
   -1.8906   -2.6201   -6.3858 H   0  0  0  0  0  0  0  0  0  0  0  0
    1.4251   -5.0603   -5.2223 H   0  0  0  0  0  0  0  0  0  0  0  0
    0.4495   -3.7238   -7.2721 C   0  0  0  0  0  0  0  0  0  0  0  0
    1.4992   -4.2636   -7.5308 O   0  0  0  0  0  0  0  0  0  0  0  0
   -0.2763   -2.9932   -8.1345 O   0  0  0  0  0  0  0  0  0  0  0  0
    0.1974   -2.9796   -8.9846 H   0  0  0  0  0  0  0  0  0  0  0  0
   -5.7482    0.1980   -1.5985 C   0  0  0  0  0  0  0  0  0  0  0  0
   -5.9451    0.1149   -0.4097 O   0  0  0  0  0  0  0  0  0  0  0  0
   -6.3649    1.0592   -2.4257 O   0  0  0  0  0  0  0  0  0  0  0  0
   -6.9834    1.5907   -1.8946 H   0  0  0  0  0  0  0  0  0  0  0  0
  1  7  1  0  0  0  0
  2  1  1  0  0  0  0
  2 10  1  0  0  0  0
  3  2  2  0  0  0  0
  4  5  2  0  0  0  0
  4  3  1  0  0  0  0
  5  6  1  0  0  0  0
  6  1  2  0  0  0  0
  6 26  1  0  0  0  0
  8  5  1  0  0  0  0
  9  4  1  0  0  0  0
 11 10  1  0  0  0  0
 12 11  2  0  0  0  0
 13 16  1  6  0  0  0
 13  3  1  0  0  0  0
 13 12  1  0  0  0  0
 14 12  1  0  0  0  0
 14 18  1  0  0  0  0
 15 13  1  0  0  0  0
 17 14  2  0  0  0  0
 19 15  2  0  0  0  0
 19 17  1  0  0  0  0
 20 15  1  0  0  0  0
 21 17  1  0  0  0  0
 22 19  1  0  0  0  0
 23 22  2  0  0  0  0
 24 22  1  0  0  0  0
 25 24  1  0  0  0  0
 26 27  2  0  0  0  0
 28 29  1  0  0  0  0
 28 26  1  0  0  0  0
M  RAD  1  10   2
M  END
