Coordinates from ORCA-job 1g-Schema5-R8-G+-B3LYPG-6-31G_dp-scan-d49-09-n400
 OpenBabel08281819463D

 29 29  0  0  0  0  0  0  0  0999 V2000
   -3.4920   -0.8020   -1.0882 C   0  0  0  0  0  0  0  0  0  0  0  0
   -3.3479   -0.1052    0.0926 C   0  0  0  0  0  0  0  0  0  0  0  0
   -3.9112    0.9814    0.3529 C   0  0  0  0  0  0  0  0  0  0  0  0
   -4.7614    1.7440   -0.4222 C   0  0  0  0  0  0  0  0  0  0  0  0
   -4.9641    1.1121   -1.6672 C   0  0  0  0  0  0  0  0  0  0  0  0
   -4.3434   -0.1151   -1.9991 C   0  0  0  0  0  0  0  0  0  0  0  0
   -3.0658   -1.7668   -1.3367 H   0  0  0  0  0  0  0  0  0  0  0  0
   -5.6159    1.5840   -2.3956 H   0  0  0  0  0  0  0  0  0  0  0  0
   -5.2330    2.6832   -0.1597 H   0  0  0  0  0  0  0  0  0  0  0  0
   -1.0582   -1.1325   -3.1090 N   0  0  0  0  0  0  0  0  0  0  0  0
   -0.9386   -2.0069   -3.7891 N   0  0  0  0  0  0  0  0  0  0  0  0
   -0.8144   -3.0950   -4.6267 C   0  0  0  0  0  0  0  0  0  0  0  0
   -1.9877   -3.6255   -5.1984 C   0  0  0  0  0  0  0  0  0  0  0  0
    0.4818   -3.6048   -4.8514 C   0  0  0  0  0  0  0  0  0  0  0  0
   -1.8339   -4.7235   -6.0344 C   0  0  0  0  0  0  0  0  0  0  0  0
   -2.9484   -3.1727   -4.9783 H   0  0  0  0  0  0  0  0  0  0  0  0
    0.5899   -4.7000   -5.6902 C   0  0  0  0  0  0  0  0  0  0  0  0
    1.3490   -3.1533   -4.3831 H   0  0  0  0  0  0  0  0  0  0  0  0
   -0.5587   -5.2574   -6.2780 C   0  0  0  0  0  0  0  0  0  0  0  0
   -2.7022   -5.1731   -6.5006 H   0  0  0  0  0  0  0  0  0  0  0  0
    1.5545   -5.1450   -5.9077 H   0  0  0  0  0  0  0  0  0  0  0  0
   -0.3524   -6.4498   -7.1758 C   0  0  0  0  0  0  0  0  0  0  0  0
    0.7389   -6.9240   -7.3901 O   0  0  0  0  0  0  0  0  0  0  0  0
   -1.5055   -6.9013   -7.6905 O   0  0  0  0  0  0  0  0  0  0  0  0
   -1.3020   -7.6690   -8.2532 H   0  0  0  0  0  0  0  0  0  0  0  0
   -4.5326   -0.7272   -3.3343 C   0  0  0  0  0  0  0  0  0  0  0  0
   -3.8067   -1.6067   -3.7924 O   0  0  0  0  0  0  0  0  0  0  0  0
   -5.5687   -0.2306   -4.0229 O   0  0  0  0  0  0  0  0  0  0  0  0
   -5.6014   -0.6830   -4.8822 H   0  0  0  0  0  0  0  0  0  0  0  0
  1  2  2  0  0  0  0
  2  3  1  0  0  0  0
  4  9  1  0  0  0  0
  4  3  2  0  0  0  0
  5  4  1  0  0  0  0
  6  5  2  0  0  0  0
  6  1  1  0  0  0  0
  7  1  1  0  0  0  0
  8  5  1  0  0  0  0
 11 10  1  0  0  0  0
 12 11  1  0  0  0  0
 13 16  1  0  0  0  0
 13 12  2  0  0  0  0
 14 12  1  0  0  0  0
 14 18  1  0  0  0  0
 15 13  1  0  0  0  0
 17 14  2  0  0  0  0
 19 15  2  0  0  0  0
 19 17  1  0  0  0  0
 20 15  1  0  0  0  0
 21 17  1  0  0  0  0
 22 19  1  0  0  0  0
 23 22  2  0  0  0  0
 24 22  1  0  0  0  0
 25 24  1  0  0  0  0
 26  6  1  0  0  0  0
 27 26  2  0  0  0  0
 28 26  1  0  0  0  0
 29 28  1  0  0  0  0
M  RAD  4   2   2   3   2  10   3  11   2
M  END
