Coordinates from ORCA-job 1g-Schema5-R8-G+-B3LYPG-6-31G_dp-scan-d49-09-n400
 OpenBabel08281819463D

 29 29  0  0  0  0  0  0  0  0999 V2000
   -3.5352   -1.3076   -1.7969 C   0  0  0  0  0  0  0  0  0  0  0  0
   -2.7704   -0.5438   -0.9240 C   0  0  0  0  0  0  0  0  0  0  0  0
   -2.9840    0.6851   -0.7789 C   0  0  0  0  0  0  0  0  0  0  0  0
   -3.8634    1.5584   -1.3727 C   0  0  0  0  0  0  0  0  0  0  0  0
   -4.6541    0.8413   -2.3003 C   0  0  0  0  0  0  0  0  0  0  0  0
   -4.4827   -0.5431   -2.5215 C   0  0  0  0  0  0  0  0  0  0  0  0
   -3.4589   -2.3794   -1.9511 H   0  0  0  0  0  0  0  0  0  0  0  0
   -5.4210    1.3731   -2.8544 H   0  0  0  0  0  0  0  0  0  0  0  0
   -3.9920    2.6163   -1.1795 H   0  0  0  0  0  0  0  0  0  0  0  0
   -0.4987   -1.4055   -1.9929 N   0  0  0  0  0  0  0  0  0  0  0  0
   -0.5423   -2.1291   -2.8459 N   0  0  0  0  0  0  0  0  0  0  0  0
   -0.5956   -3.0248   -3.8951 C   0  0  0  0  0  0  0  0  0  0  0  0
   -1.8436   -3.3076   -4.4854 C   0  0  0  0  0  0  0  0  0  0  0  0
    0.6238   -3.6062   -4.3061 C   0  0  0  0  0  0  0  0  0  0  0  0
   -1.8493   -4.2218   -5.5313 C   0  0  0  0  0  0  0  0  0  0  0  0
   -2.7686   -2.8431   -4.1502 H   0  0  0  0  0  0  0  0  0  0  0  0
    0.5736   -4.5107   -5.3516 C   0  0  0  0  0  0  0  0  0  0  0  0
    1.5556   -3.3493   -3.8150 H   0  0  0  0  0  0  0  0  0  0  0  0
   -0.6547   -4.8193   -5.9611 C   0  0  0  0  0  0  0  0  0  0  0  0
   -2.7862   -4.4730   -6.0138 H   0  0  0  0  0  0  0  0  0  0  0  0
    1.4727   -4.9948   -5.7163 H   0  0  0  0  0  0  0  0  0  0  0  0
   -0.6219   -5.8169   -7.0895 C   0  0  0  0  0  0  0  0  0  0  0  0
    0.4007   -6.3382   -7.4702 O   0  0  0  0  0  0  0  0  0  0  0  0
   -1.8407   -6.0447   -7.5998 O   0  0  0  0  0  0  0  0  0  0  0  0
   -1.7475   -6.6946   -8.3183 H   0  0  0  0  0  0  0  0  0  0  0  0
   -5.2419   -1.2637   -3.5826 C   0  0  0  0  0  0  0  0  0  0  0  0
   -4.8704   -2.3195   -4.0733 O   0  0  0  0  0  0  0  0  0  0  0  0
   -6.3615   -0.6359   -3.9653 O   0  0  0  0  0  0  0  0  0  0  0  0
   -6.7736   -1.1671   -4.6685 H   0  0  0  0  0  0  0  0  0  0  0  0
  1  2  2  0  0  0  0
  2  3  1  0  0  0  0
  4  9  1  0  0  0  0
  4  3  2  0  0  0  0
  5  4  1  0  0  0  0
  6  5  2  0  0  0  0
  6  1  1  0  0  0  0
  7  1  1  0  0  0  0
  8  5  1  0  0  0  0
 11 10  1  0  0  0  0
 12 11  1  0  0  0  0
 13 16  1  0  0  0  0
 13 12  2  0  0  0  0
 14 12  1  0  0  0  0
 14 18  1  0  0  0  0
 15 13  1  0  0  0  0
 17 14  2  0  0  0  0
 19 15  2  0  0  0  0
 19 17  1  0  0  0  0
 20 15  1  0  0  0  0
 21 17  1  0  0  0  0
 22 19  1  0  0  0  0
 23 22  2  0  0  0  0
 24 22  1  0  0  0  0
 25 24  1  0  0  0  0
 26  6  1  0  0  0  0
 27 26  2  0  0  0  0
 28 26  1  0  0  0  0
 29 28  1  0  0  0  0
M  RAD  4   2   2   3   2  10   3  11   2
M  END
