Coordinates from ORCA-job 1g-Schema5-R8-G+-B3LYPG-6-31G_dp-scan-d49-09-n400
 OpenBabel08281819463D

 29 29  0  0  0  0  0  0  0  0999 V2000
   -3.4199   -0.4910   -0.9216 C   0  0  0  0  0  0  0  0  0  0  0  0
   -3.6539    0.0884    0.3065 C   0  0  0  0  0  0  0  0  0  0  0  0
   -4.5293    0.9507    0.5416 C   0  0  0  0  0  0  0  0  0  0  0  0
   -5.4458    1.5278   -0.3156 C   0  0  0  0  0  0  0  0  0  0  0  0
   -5.2869    0.9956   -1.6110 C   0  0  0  0  0  0  0  0  0  0  0  0
   -4.3053    0.0195   -1.9120 C   0  0  0  0  0  0  0  0  0  0  0  0
   -2.6847   -1.2499   -1.1623 H   0  0  0  0  0  0  0  0  0  0  0  0
   -5.9365    1.3469   -2.4055 H   0  0  0  0  0  0  0  0  0  0  0  0
   -6.1929    2.2761   -0.0786 H   0  0  0  0  0  0  0  0  0  0  0  0
   -0.5687   -1.1042   -3.2815 N   0  0  0  0  0  0  0  0  0  0  0  0
   -0.5280   -2.0034   -3.9375 N   0  0  0  0  0  0  0  0  0  0  0  0
   -0.5509   -3.1226   -4.7419 C   0  0  0  0  0  0  0  0  0  0  0  0
   -1.8080   -3.5696   -5.1942 C   0  0  0  0  0  0  0  0  0  0  0  0
    0.6745   -3.7456   -5.0533 C   0  0  0  0  0  0  0  0  0  0  0  0
   -1.8185   -4.7014   -5.9977 C   0  0  0  0  0  0  0  0  0  0  0  0
   -2.7027   -3.0262   -4.9095 H   0  0  0  0  0  0  0  0  0  0  0  0
    0.6204   -4.8706   -5.8580 C   0  0  0  0  0  0  0  0  0  0  0  0
    1.6125   -3.3552   -4.6751 H   0  0  0  0  0  0  0  0  0  0  0  0
   -0.6159   -5.3471   -6.3266 C   0  0  0  0  0  0  0  0  0  0  0  0
   -2.7571   -5.0907   -6.3731 H   0  0  0  0  0  0  0  0  0  0  0  0
    1.5230   -5.4016   -6.1392 H   0  0  0  0  0  0  0  0  0  0  0  0
   -0.5851   -6.5790   -7.1938 C   0  0  0  0  0  0  0  0  0  0  0  0
    0.4420   -7.1448   -7.4876 O   0  0  0  0  0  0  0  0  0  0  0  0
   -1.8126   -6.9543   -7.5828 O   0  0  0  0  0  0  0  0  0  0  0  0
   -1.7220   -7.7535   -8.1309 H   0  0  0  0  0  0  0  0  0  0  0  0
   -4.1625   -0.5091   -3.2856 C   0  0  0  0  0  0  0  0  0  0  0  0
   -3.2545   -1.2544   -3.6551 O   0  0  0  0  0  0  0  0  0  0  0  0
   -5.1252   -0.1068   -4.1286 O   0  0  0  0  0  0  0  0  0  0  0  0
   -4.9373   -0.4899   -5.0009 H   0  0  0  0  0  0  0  0  0  0  0  0
  1  2  2  0  0  0  0
  2  3  1  0  0  0  0
  4  9  1  0  0  0  0
  4  3  2  0  0  0  0
  5  4  1  0  0  0  0
  6  5  2  0  0  0  0
  6  1  1  0  0  0  0
  7  1  1  0  0  0  0
  8  5  1  0  0  0  0
 11 10  1  0  0  0  0
 12 11  1  0  0  0  0
 13 16  1  0  0  0  0
 13 12  2  0  0  0  0
 14 12  1  0  0  0  0
 14 18  1  0  0  0  0
 15 13  1  0  0  0  0
 17 14  2  0  0  0  0
 19 15  2  0  0  0  0
 19 17  1  0  0  0  0
 20 15  1  0  0  0  0
 21 17  1  0  0  0  0
 22 19  1  0  0  0  0
 23 22  2  0  0  0  0
 24 22  1  0  0  0  0
 25 24  1  0  0  0  0
 26  6  1  0  0  0  0
 27 26  2  0  0  0  0
 28 26  1  0  0  0  0
 29 28  1  0  0  0  0
M  RAD  4   2   2   3   2  10   3  11   2
M  END
