Coordinates from ORCA-job 1g-Schema5-R8-G+-B3LYPG-6-31G_dp-scan-d49-09-n400
 OpenBabel08281819463D

 29 29  0  0  0  0  0  0  0  0999 V2000
   -3.5447   -1.0523   -1.2770 C   0  0  0  0  0  0  0  0  0  0  0  0
   -3.2465   -0.4530   -0.0704 C   0  0  0  0  0  0  0  0  0  0  0  0
   -3.6497    0.6791    0.2786 C   0  0  0  0  0  0  0  0  0  0  0  0
   -4.4326    1.5905   -0.4008 C   0  0  0  0  0  0  0  0  0  0  0  0
   -4.7801    1.0671   -1.6648 C   0  0  0  0  0  0  0  0  0  0  0  0
   -4.3434   -0.2061   -2.0981 C   0  0  0  0  0  0  0  0  0  0  0  0
   -3.2709   -2.0499   -1.6004 H   0  0  0  0  0  0  0  0  0  0  0  0
   -5.4026    1.6609   -2.3264 H   0  0  0  0  0  0  0  0  0  0  0  0
   -4.7667    2.5623   -0.0585 H   0  0  0  0  0  0  0  0  0  0  0  0
   -1.2274   -0.9456   -3.2244 N   0  0  0  0  0  0  0  0  0  0  0  0
   -1.1107   -1.8498   -3.8663 N   0  0  0  0  0  0  0  0  0  0  0  0
   -0.9363   -2.9744   -4.6461 C   0  0  0  0  0  0  0  0  0  0  0  0
   -2.0734   -3.5759   -5.2191 C   0  0  0  0  0  0  0  0  0  0  0  0
    0.3832   -3.4482   -4.8123 C   0  0  0  0  0  0  0  0  0  0  0  0
   -1.8586   -4.7093   -5.9927 C   0  0  0  0  0  0  0  0  0  0  0  0
   -3.0556   -3.1490   -5.0500 H   0  0  0  0  0  0  0  0  0  0  0  0
    0.5521   -4.5806   -5.5890 C   0  0  0  0  0  0  0  0  0  0  0  0
    1.2214   -2.9421   -4.3469 H   0  0  0  0  0  0  0  0  0  0  0  0
   -0.5600   -5.2092   -6.1755 C   0  0  0  0  0  0  0  0  0  0  0  0
   -2.6983   -5.2124   -6.4567 H   0  0  0  0  0  0  0  0  0  0  0  0
    1.5374   -5.0010   -5.7578 H   0  0  0  0  0  0  0  0  0  0  0  0
   -0.2879   -6.4387   -7.0026 C   0  0  0  0  0  0  0  0  0  0  0  0
    0.8249   -6.8839   -7.1627 O   0  0  0  0  0  0  0  0  0  0  0  0
   -1.4099   -6.9599   -7.5199 O   0  0  0  0  0  0  0  0  0  0  0  0
   -1.1641   -7.7492   -8.0335 H   0  0  0  0  0  0  0  0  0  0  0  0
   -4.6684   -0.7037   -3.4568 C   0  0  0  0  0  0  0  0  0  0  0  0
   -4.0514   -1.6055   -4.0155 O   0  0  0  0  0  0  0  0  0  0  0  0
   -5.6932   -0.0702   -4.0411 O   0  0  0  0  0  0  0  0  0  0  0  0
   -5.8184   -0.4559   -4.9247 H   0  0  0  0  0  0  0  0  0  0  0  0
  1  2  2  0  0  0  0
  2  3  1  0  0  0  0
  4  9  1  0  0  0  0
  4  3  2  0  0  0  0
  5  4  1  0  0  0  0
  6  5  2  0  0  0  0
  6  1  1  0  0  0  0
  7  1  1  0  0  0  0
  8  5  1  0  0  0  0
 11 10  1  0  0  0  0
 12 11  1  0  0  0  0
 13 16  1  0  0  0  0
 13 12  2  0  0  0  0
 14 12  1  0  0  0  0
 14 18  1  0  0  0  0
 15 13  1  0  0  0  0
 17 14  2  0  0  0  0
 19 15  2  0  0  0  0
 19 17  1  0  0  0  0
 20 15  1  0  0  0  0
 21 17  1  0  0  0  0
 22 19  1  0  0  0  0
 23 22  2  0  0  0  0
 24 22  1  0  0  0  0
 25 24  1  0  0  0  0
 26  6  1  0  0  0  0
 27 26  2  0  0  0  0
 28 26  1  0  0  0  0
 29 28  1  0  0  0  0
M  RAD  4   2   2   3   2  10   3  11   2
M  END
