Coordinates from ORCA-job 1g-Schema5-R8-G+-B3LYPG-6-31G_dp-scan-d49-09-n400
 OpenBabel08281819463D

 29 29  0  0  0  0  0  0  0  0999 V2000
   -3.6260   -1.2249   -1.4138 C   0  0  0  0  0  0  0  0  0  0  0  0
   -3.1844   -0.6760   -0.2263 C   0  0  0  0  0  0  0  0  0  0  0  0
   -3.4304    0.4928    0.1472 C   0  0  0  0  0  0  0  0  0  0  0  0
   -4.1394    1.4965   -0.4807 C   0  0  0  0  0  0  0  0  0  0  0  0
   -4.6211    1.0296   -1.7233 C   0  0  0  0  0  0  0  0  0  0  0  0
   -4.3646   -0.2813   -2.1848 C   0  0  0  0  0  0  0  0  0  0  0  0
   -3.4916   -2.2445   -1.7579 H   0  0  0  0  0  0  0  0  0  0  0  0
   -5.2084    1.6984   -2.3444 H   0  0  0  0  0  0  0  0  0  0  0  0
   -4.3377    2.4968   -0.1151 H   0  0  0  0  0  0  0  0  0  0  0  0
   -1.3527   -0.9017   -3.1606 N   0  0  0  0  0  0  0  0  0  0  0  0
   -1.2145   -1.7985   -3.8110 N   0  0  0  0  0  0  0  0  0  0  0  0
   -1.0040   -2.9183   -4.5895 C   0  0  0  0  0  0  0  0  0  0  0  0
   -2.1219   -3.5611   -5.1550 C   0  0  0  0  0  0  0  0  0  0  0  0
    0.3302   -3.3479   -4.7586 C   0  0  0  0  0  0  0  0  0  0  0  0
   -1.8726   -4.6920   -5.9219 C   0  0  0  0  0  0  0  0  0  0  0  0
   -3.1172   -3.1640   -4.9874 H   0  0  0  0  0  0  0  0  0  0  0  0
    0.5338   -4.4795   -5.5281 C   0  0  0  0  0  0  0  0  0  0  0  0
    1.1525   -2.8110   -4.2996 H   0  0  0  0  0  0  0  0  0  0  0  0
   -0.5588   -5.1495   -6.1057 C   0  0  0  0  0  0  0  0  0  0  0  0
   -2.6969   -5.2254   -6.3798 H   0  0  0  0  0  0  0  0  0  0  0  0
    1.5320   -4.8679   -5.6980 H   0  0  0  0  0  0  0  0  0  0  0  0
   -0.2481   -6.3754   -6.9244 C   0  0  0  0  0  0  0  0  0  0  0  0
    0.8788   -6.7823   -7.0879 O   0  0  0  0  0  0  0  0  0  0  0  0
   -1.3540   -6.9411   -7.4297 O   0  0  0  0  0  0  0  0  0  0  0  0
   -1.0831   -7.7256   -7.9380 H   0  0  0  0  0  0  0  0  0  0  0  0
   -4.8092   -0.7214   -3.5314 C   0  0  0  0  0  0  0  0  0  0  0  0
   -4.3028   -1.6584   -4.1375 O   0  0  0  0  0  0  0  0  0  0  0  0
   -5.8059    0.0111   -4.0436 O   0  0  0  0  0  0  0  0  0  0  0  0
   -6.0141   -0.3434   -4.9249 H   0  0  0  0  0  0  0  0  0  0  0  0
  1  2  2  0  0  0  0
  2  3  1  0  0  0  0
  4  9  1  0  0  0  0
  4  3  2  0  0  0  0
  5  4  1  0  0  0  0
  6  5  2  0  0  0  0
  6  1  1  0  0  0  0
  7  1  1  0  0  0  0
  8  5  1  0  0  0  0
 11 10  1  0  0  0  0
 12 11  1  0  0  0  0
 13 16  1  0  0  0  0
 13 12  2  0  0  0  0
 14 12  1  0  0  0  0
 14 18  1  0  0  0  0
 15 13  1  0  0  0  0
 17 14  2  0  0  0  0
 19 15  2  0  0  0  0
 19 17  1  0  0  0  0
 20 15  1  0  0  0  0
 21 17  1  0  0  0  0
 22 19  1  0  0  0  0
 23 22  2  0  0  0  0
 24 22  1  0  0  0  0
 25 24  1  0  0  0  0
 26  6  1  0  0  0  0
 27 26  2  0  0  0  0
 28 26  1  0  0  0  0
 29 28  1  0  0  0  0
M  RAD  4   2   2   3   2  10   3  11   2
M  END
