Coordinates from ORCA-job 1g-Schema5-R8-G+-B3LYPG-6-31G_dp-scan-d49-09-n400
 OpenBabel08281819463D

 29 29  0  0  0  0  0  0  0  0999 V2000
   -3.5411   -1.3043   -1.7886 C   0  0  0  0  0  0  0  0  0  0  0  0
   -2.7867   -0.5399   -0.9076 C   0  0  0  0  0  0  0  0  0  0  0  0
   -3.0030    0.6882   -0.7616 C   0  0  0  0  0  0  0  0  0  0  0  0
   -3.8803    1.5601   -1.3611 C   0  0  0  0  0  0  0  0  0  0  0  0
   -4.6614    0.8431   -2.2967 C   0  0  0  0  0  0  0  0  0  0  0  0
   -4.4847   -0.5404   -2.5194 C   0  0  0  0  0  0  0  0  0  0  0  0
   -3.4614   -2.3755   -1.9449 H   0  0  0  0  0  0  0  0  0  0  0  0
   -5.4250    1.3740   -2.8561 H   0  0  0  0  0  0  0  0  0  0  0  0
   -4.0130    2.6174   -1.1673 H   0  0  0  0  0  0  0  0  0  0  0  0
   -0.4801   -1.4011   -2.0023 N   0  0  0  0  0  0  0  0  0  0  0  0
   -0.5263   -2.1266   -2.8532 N   0  0  0  0  0  0  0  0  0  0  0  0
   -0.5856   -3.0246   -3.8998 C   0  0  0  0  0  0  0  0  0  0  0  0
   -1.8361   -3.3058   -4.4852 C   0  0  0  0  0  0  0  0  0  0  0  0
    0.6313   -3.6095   -4.3137 C   0  0  0  0  0  0  0  0  0  0  0  0
   -1.8465   -4.2219   -5.5295 C   0  0  0  0  0  0  0  0  0  0  0  0
   -2.7607   -2.8403   -4.1502 H   0  0  0  0  0  0  0  0  0  0  0  0
    0.5763   -4.5158   -5.3573 C   0  0  0  0  0  0  0  0  0  0  0  0
    1.5652   -3.3534   -3.8261 H   0  0  0  0  0  0  0  0  0  0  0  0
   -0.6548   -4.8228   -5.9623 C   0  0  0  0  0  0  0  0  0  0  0  0
   -2.7855   -4.4719   -6.0085 H   0  0  0  0  0  0  0  0  0  0  0  0
    1.4732   -5.0024   -5.7239 H   0  0  0  0  0  0  0  0  0  0  0  0
   -0.6278   -5.8224   -7.0891 C   0  0  0  0  0  0  0  0  0  0  0  0
    0.3924   -6.3463   -7.4724 O   0  0  0  0  0  0  0  0  0  0  0  0
   -1.8488   -6.0480   -7.5953 O   0  0  0  0  0  0  0  0  0  0  0  0
   -1.7595   -6.6990   -8.3133 H   0  0  0  0  0  0  0  0  0  0  0  0
   -5.2342   -1.2608   -3.5873 C   0  0  0  0  0  0  0  0  0  0  0  0
   -4.8573   -2.3152   -4.0774 O   0  0  0  0  0  0  0  0  0  0  0  0
   -6.3524   -0.6349   -3.9772 O   0  0  0  0  0  0  0  0  0  0  0  0
   -6.7581   -1.1659   -4.6842 H   0  0  0  0  0  0  0  0  0  0  0  0
  1  2  2  0  0  0  0
  2  3  1  0  0  0  0
  4  9  1  0  0  0  0
  4  3  2  0  0  0  0
  5  4  1  0  0  0  0
  6  5  2  0  0  0  0
  6  1  1  0  0  0  0
  7  1  1  0  0  0  0
  8  5  1  0  0  0  0
 11 10  1  0  0  0  0
 12 11  1  0  0  0  0
 13 16  1  0  0  0  0
 13 12  2  0  0  0  0
 14 12  1  0  0  0  0
 14 18  1  0  0  0  0
 15 13  1  0  0  0  0
 17 14  2  0  0  0  0
 19 15  2  0  0  0  0
 19 17  1  0  0  0  0
 20 15  1  0  0  0  0
 21 17  1  0  0  0  0
 22 19  1  0  0  0  0
 23 22  2  0  0  0  0
 24 22  1  0  0  0  0
 25 24  1  0  0  0  0
 26  6  1  0  0  0  0
 27 26  2  0  0  0  0
 28 26  1  0  0  0  0
 29 28  1  0  0  0  0
M  RAD  4   2   2   3   2  10   3  11   2
M  END
