Coordinates from ORCA-job 1g-Schema5-R8-G+-B3LYPG-6-31G_dp-scan-d49-09-n400
 OpenBabel08281819463D

 29 31  0  0  1  0  0  0  0  0999 V2000
   -4.0527   -1.6037   -1.6012 C   0  0  0  0  0  0  0  0  0  0  0  0
   -3.0704   -2.4697   -2.2309 C   0  0  0  0  0  0  0  0  0  0  0  0
   -2.9066   -2.3323   -3.6871 C   0  0  0  0  0  0  0  0  0  0  0  0
   -3.6414   -1.4014   -4.3923 C   0  0  0  0  0  0  0  0  0  0  0  0
   -4.5488   -0.5682   -3.7181 C   0  0  0  0  0  0  0  0  0  0  0  0
   -4.7656   -0.6738   -2.3278 C   0  0  0  0  0  0  0  0  0  0  0  0
   -4.1983   -1.7012   -0.5295 H   0  0  0  0  0  0  0  0  0  0  0  0
   -5.1019    0.1799   -4.2767 H   0  0  0  0  0  0  0  0  0  0  0  0
   -3.5237   -1.2857   -5.4650 H   0  0  0  0  0  0  0  0  0  0  0  0
   -2.4663   -3.1817   -1.5586 N   0  0  0  0  0  0  0  0  0  0  0  0
   -1.4457   -3.9687   -1.9290 N   0  0  0  0  0  0  0  0  0  0  0  0
   -1.1173   -3.9813   -3.2277 C   0  0  0  0  0  0  0  0  0  0  0  0
   -1.9756   -3.3404   -4.2768 C   0  0  2  0  0  0  0  0  0  0  0  0
    0.0532   -4.6756   -3.6214 C   0  0  0  0  0  0  0  0  0  0  0  0
   -1.3561   -3.1704   -5.6206 C   0  0  0  0  0  0  0  0  0  0  0  0
   -2.6795   -4.1911   -4.4945 H   0  0  0  0  0  0  0  0  0  0  0  0
    0.5022   -4.5791   -4.9156 C   0  0  0  0  0  0  0  0  0  0  0  0
    0.6013   -5.2203   -2.8604 H   0  0  0  0  0  0  0  0  0  0  0  0
   -0.1905   -3.8056   -5.9144 C   0  0  0  0  0  0  0  0  0  0  0  0
   -1.8850   -2.6133   -6.3857 H   0  0  0  0  0  0  0  0  0  0  0  0
    1.4195   -5.0709   -5.2253 H   0  0  0  0  0  0  0  0  0  0  0  0
    0.4497   -3.7258   -7.2724 C   0  0  0  0  0  0  0  0  0  0  0  0
    1.4962   -4.2710   -7.5327 O   0  0  0  0  0  0  0  0  0  0  0  0
   -0.2721   -2.9897   -8.1339 O   0  0  0  0  0  0  0  0  0  0  0  0
    0.2021   -2.9776   -8.9837 H   0  0  0  0  0  0  0  0  0  0  0  0
   -5.7517    0.1964   -1.5975 C   0  0  0  0  0  0  0  0  0  0  0  0
   -5.9494    0.1141   -0.4090 O   0  0  0  0  0  0  0  0  0  0  0  0
   -6.3689    1.0556   -2.4265 O   0  0  0  0  0  0  0  0  0  0  0  0
   -6.9889    1.5869   -1.8970 H   0  0  0  0  0  0  0  0  0  0  0  0
  1  7  1  0  0  0  0
  2  1  1  0  0  0  0
  2 10  1  0  0  0  0
  3  2  2  0  0  0  0
  4  5  2  0  0  0  0
  4  3  1  0  0  0  0
  5  6  1  0  0  0  0
  6  1  2  0  0  0  0
  6 26  1  0  0  0  0
  8  5  1  0  0  0  0
  9  4  1  0  0  0  0
 11 10  1  0  0  0  0
 12 11  2  0  0  0  0
 13 16  1  6  0  0  0
 13  3  1  0  0  0  0
 13 12  1  0  0  0  0
 14 12  1  0  0  0  0
 14 18  1  0  0  0  0
 15 13  1  0  0  0  0
 17 14  2  0  0  0  0
 19 15  2  0  0  0  0
 19 17  1  0  0  0  0
 20 15  1  0  0  0  0
 21 17  1  0  0  0  0
 22 19  1  0  0  0  0
 23 22  2  0  0  0  0
 24 22  1  0  0  0  0
 25 24  1  0  0  0  0
 26 27  2  0  0  0  0
 28 29  1  0  0  0  0
 28 26  1  0  0  0  0
M  RAD  1  10   2
M  END
