Coordinates from ORCA-job 1g-Schema5-R8-G+-B3LYPG-6-31G_dp-scan-d49-09-n400
 OpenBabel08281819463D

 29 29  0  0  0  0  0  0  0  0999 V2000
   -3.4356   -1.2273   -2.0281 C   0  0  0  0  0  0  0  0  0  0  0  0
   -2.5241   -0.4478   -1.3201 C   0  0  0  0  0  0  0  0  0  0  0  0
   -2.7935    0.7706   -1.1415 C   0  0  0  0  0  0  0  0  0  0  0  0
   -3.8019    1.6109   -1.5327 C   0  0  0  0  0  0  0  0  0  0  0  0
   -4.7297    0.8560   -2.2898 C   0  0  0  0  0  0  0  0  0  0  0  0
   -4.5405   -0.5184   -2.5472 C   0  0  0  0  0  0  0  0  0  0  0  0
   -3.3447   -2.2940   -2.2067 H   0  0  0  0  0  0  0  0  0  0  0  0
   -5.6111    1.3549   -2.6800 H   0  0  0  0  0  0  0  0  0  0  0  0
   -3.9299    2.6629   -1.3112 H   0  0  0  0  0  0  0  0  0  0  0  0
   -0.4930   -1.5656   -1.8292 N   0  0  0  0  0  0  0  0  0  0  0  0
   -0.5458   -2.2608   -2.7120 N   0  0  0  0  0  0  0  0  0  0  0  0
   -0.5936   -3.1076   -3.8034 C   0  0  0  0  0  0  0  0  0  0  0  0
   -1.8056   -3.2866   -4.5011 C   0  0  0  0  0  0  0  0  0  0  0  0
    0.6112   -3.7545   -4.1544 C   0  0  0  0  0  0  0  0  0  0  0  0
   -1.7899   -4.1533   -5.5862 C   0  0  0  0  0  0  0  0  0  0  0  0
   -2.7225   -2.7825   -4.2123 H   0  0  0  0  0  0  0  0  0  0  0  0
    0.5874   -4.6086   -5.2432 C   0  0  0  0  0  0  0  0  0  0  0  0
    1.5170   -3.5816   -3.5840 H   0  0  0  0  0  0  0  0  0  0  0  0
   -0.6059   -4.8094   -5.9562 C   0  0  0  0  0  0  0  0  0  0  0  0
   -2.7012   -4.3243   -6.1467 H   0  0  0  0  0  0  0  0  0  0  0  0
    1.4804   -5.1347   -5.5615 H   0  0  0  0  0  0  0  0  0  0  0  0
   -0.5503   -5.7574   -7.1251 C   0  0  0  0  0  0  0  0  0  0  0  0
    0.4615   -6.3336   -7.4518 O   0  0  0  0  0  0  0  0  0  0  0  0
   -1.7365   -5.8740   -7.7403 O   0  0  0  0  0  0  0  0  0  0  0  0
   -1.6287   -6.4968   -8.4804 H   0  0  0  0  0  0  0  0  0  0  0  0
   -5.4390   -1.2911   -3.4553 C   0  0  0  0  0  0  0  0  0  0  0  0
   -5.1084   -2.3430   -3.9763 O   0  0  0  0  0  0  0  0  0  0  0  0
   -6.6265   -0.7046   -3.6594 O   0  0  0  0  0  0  0  0  0  0  0  0
   -7.1316   -1.2635   -4.2752 H   0  0  0  0  0  0  0  0  0  0  0  0
  1  2  2  0  0  0  0
  2  3  1  0  0  0  0
  4  9  1  0  0  0  0
  4  3  2  0  0  0  0
  5  4  1  0  0  0  0
  6  5  2  0  0  0  0
  6  1  1  0  0  0  0
  7  1  1  0  0  0  0
  8  5  1  0  0  0  0
 11 10  1  0  0  0  0
 12 11  1  0  0  0  0
 13 16  1  0  0  0  0
 13 12  2  0  0  0  0
 14 12  1  0  0  0  0
 14 18  1  0  0  0  0
 15 13  1  0  0  0  0
 17 14  2  0  0  0  0
 19 15  2  0  0  0  0
 19 17  1  0  0  0  0
 20 15  1  0  0  0  0
 21 17  1  0  0  0  0
 22 19  1  0  0  0  0
 23 22  2  0  0  0  0
 24 22  1  0  0  0  0
 25 24  1  0  0  0  0
 26  6  1  0  0  0  0
 27 26  2  0  0  0  0
 28 26  1  0  0  0  0
 29 28  1  0  0  0  0
M  RAD  4   2   2   3   2  10   3  11   2
M  END
