Coordinates from ORCA-job 1g-Schema5-R8-G+-B3LYPG-6-31G_dp-scan-d49-09-n400
 OpenBabel08281819463D

 29 29  0  0  0  0  0  0  0  0999 V2000
   -3.4304   -1.2186   -2.0565 C   0  0  0  0  0  0  0  0  0  0  0  0
   -2.5089   -0.4459   -1.3538 C   0  0  0  0  0  0  0  0  0  0  0  0
   -2.7836    0.7684   -1.1532 C   0  0  0  0  0  0  0  0  0  0  0  0
   -3.8023    1.6092   -1.5145 C   0  0  0  0  0  0  0  0  0  0  0  0
   -4.7403    0.8598   -2.2648 C   0  0  0  0  0  0  0  0  0  0  0  0
   -4.5486   -0.5100   -2.5443 C   0  0  0  0  0  0  0  0  0  0  0  0
   -3.3361   -2.2818   -2.2530 H   0  0  0  0  0  0  0  0  0  0  0  0
   -5.6308    1.3597   -2.6326 H   0  0  0  0  0  0  0  0  0  0  0  0
   -3.9307    2.6575   -1.2770 H   0  0  0  0  0  0  0  0  0  0  0  0
   -0.5021   -1.5509   -1.8482 N   0  0  0  0  0  0  0  0  0  0  0  0
   -0.5533   -2.2519   -2.7278 N   0  0  0  0  0  0  0  0  0  0  0  0
   -0.5959   -3.1049   -3.8146 C   0  0  0  0  0  0  0  0  0  0  0  0
   -1.8009   -3.2803   -4.5254 C   0  0  0  0  0  0  0  0  0  0  0  0
    0.6081   -3.7621   -4.1489 C   0  0  0  0  0  0  0  0  0  0  0  0
   -1.7791   -4.1534   -5.6053 C   0  0  0  0  0  0  0  0  0  0  0  0
   -2.7175   -2.7684   -4.2497 H   0  0  0  0  0  0  0  0  0  0  0  0
    0.5908   -4.6226   -5.2328 C   0  0  0  0  0  0  0  0  0  0  0  0
    1.5086   -3.5918   -3.5694 H   0  0  0  0  0  0  0  0  0  0  0  0
   -0.5955   -4.8197   -5.9581 C   0  0  0  0  0  0  0  0  0  0  0  0
   -2.6850   -4.3216   -6.1753 H   0  0  0  0  0  0  0  0  0  0  0  0
    1.4839   -5.1565   -5.5379 H   0  0  0  0  0  0  0  0  0  0  0  0
   -0.5334   -5.7749   -7.1206 C   0  0  0  0  0  0  0  0  0  0  0  0
    0.4778   -6.3605   -7.4324 O   0  0  0  0  0  0  0  0  0  0  0  0
   -1.7136   -5.8877   -7.7480 O   0  0  0  0  0  0  0  0  0  0  0  0
   -1.6019   -6.5160   -8.4828 H   0  0  0  0  0  0  0  0  0  0  0  0
   -5.4595   -1.2772   -3.4451 C   0  0  0  0  0  0  0  0  0  0  0  0
   -5.1345   -2.3243   -3.9785 O   0  0  0  0  0  0  0  0  0  0  0  0
   -6.6517   -0.6920   -3.6246 O   0  0  0  0  0  0  0  0  0  0  0  0
   -7.1656   -1.2472   -4.2364 H   0  0  0  0  0  0  0  0  0  0  0  0
  1  2  2  0  0  0  0
  2  3  1  0  0  0  0
  4  9  1  0  0  0  0
  4  3  2  0  0  0  0
  5  4  1  0  0  0  0
  6  5  2  0  0  0  0
  6  1  1  0  0  0  0
  7  1  1  0  0  0  0
  8  5  1  0  0  0  0
 11 10  1  0  0  0  0
 12 11  1  0  0  0  0
 13 16  1  0  0  0  0
 13 12  2  0  0  0  0
 14 12  1  0  0  0  0
 14 18  1  0  0  0  0
 15 13  1  0  0  0  0
 17 14  2  0  0  0  0
 19 15  2  0  0  0  0
 19 17  1  0  0  0  0
 20 15  1  0  0  0  0
 21 17  1  0  0  0  0
 22 19  1  0  0  0  0
 23 22  2  0  0  0  0
 24 22  1  0  0  0  0
 25 24  1  0  0  0  0
 26  6  1  0  0  0  0
 27 26  2  0  0  0  0
 28 26  1  0  0  0  0
 29 28  1  0  0  0  0
M  RAD  4   2   2   3   2  10   3  11   2
M  END
