Coordinates from ORCA-job 1g-Schema5-R8-G+-B3LYPG-6-31G_dp-scan-d49-09-n400
 OpenBabel08281819463D

 29 29  0  0  0  0  0  0  0  0999 V2000
   -3.4403   -1.2385   -2.0038 C   0  0  0  0  0  0  0  0  0  0  0  0
   -2.5379   -0.4576   -1.2860 C   0  0  0  0  0  0  0  0  0  0  0  0
   -2.8021    0.7629   -1.1174 C   0  0  0  0  0  0  0  0  0  0  0  0
   -3.7992    1.6056   -1.5329 C   0  0  0  0  0  0  0  0  0  0  0  0
   -4.7180    0.8509   -2.3008 C   0  0  0  0  0  0  0  0  0  0  0  0
   -4.5319   -0.5264   -2.5464 C   0  0  0  0  0  0  0  0  0  0  0  0
   -3.3508   -2.3066   -2.1747 H   0  0  0  0  0  0  0  0  0  0  0  0
   -5.5903    1.3515   -2.7088 H   0  0  0  0  0  0  0  0  0  0  0  0
   -3.9259    2.6596   -1.3202 H   0  0  0  0  0  0  0  0  0  0  0  0
   -0.4942   -1.5561   -1.8326 N   0  0  0  0  0  0  0  0  0  0  0  0
   -0.5484   -2.2513   -2.7147 N   0  0  0  0  0  0  0  0  0  0  0  0
   -0.5978   -3.0997   -3.8046 C   0  0  0  0  0  0  0  0  0  0  0  0
   -1.8132   -3.2852   -4.4945 C   0  0  0  0  0  0  0  0  0  0  0  0
    0.6084   -3.7409   -4.1618 C   0  0  0  0  0  0  0  0  0  0  0  0
   -1.7994   -4.1531   -5.5788 C   0  0  0  0  0  0  0  0  0  0  0  0
   -2.7316   -2.7857   -4.2014 H   0  0  0  0  0  0  0  0  0  0  0  0
    0.5822   -4.5965   -5.2492 C   0  0  0  0  0  0  0  0  0  0  0  0
    1.5166   -3.5626   -3.5969 H   0  0  0  0  0  0  0  0  0  0  0  0
   -0.6143   -4.8039   -5.9549 C   0  0  0  0  0  0  0  0  0  0  0  0
   -2.7131   -4.3290   -6.1338 H   0  0  0  0  0  0  0  0  0  0  0  0
    1.4758   -5.1187   -5.5722 H   0  0  0  0  0  0  0  0  0  0  0  0
   -0.5609   -5.7531   -7.1229 C   0  0  0  0  0  0  0  0  0  0  0  0
    0.4517   -6.3249   -7.4547 O   0  0  0  0  0  0  0  0  0  0  0  0
   -1.7501   -5.8764   -7.7311 O   0  0  0  0  0  0  0  0  0  0  0  0
   -1.6434   -6.4997   -8.4709 H   0  0  0  0  0  0  0  0  0  0  0  0
   -5.4188   -1.2982   -3.4664 C   0  0  0  0  0  0  0  0  0  0  0  0
   -5.0829   -2.3515   -3.9817 O   0  0  0  0  0  0  0  0  0  0  0  0
   -6.6026   -0.7108   -3.6876 O   0  0  0  0  0  0  0  0  0  0  0  0
   -7.0996   -1.2695   -4.3101 H   0  0  0  0  0  0  0  0  0  0  0  0
  1  2  2  0  0  0  0
  2  3  1  0  0  0  0
  4  9  1  0  0  0  0
  4  3  2  0  0  0  0
  5  4  1  0  0  0  0
  6  5  2  0  0  0  0
  6  1  1  0  0  0  0
  7  1  1  0  0  0  0
  8  5  1  0  0  0  0
 11 10  1  0  0  0  0
 12 11  1  0  0  0  0
 13 16  1  0  0  0  0
 13 12  2  0  0  0  0
 14 12  1  0  0  0  0
 14 18  1  0  0  0  0
 15 13  1  0  0  0  0
 17 14  2  0  0  0  0
 19 15  2  0  0  0  0
 19 17  1  0  0  0  0
 20 15  1  0  0  0  0
 21 17  1  0  0  0  0
 22 19  1  0  0  0  0
 23 22  2  0  0  0  0
 24 22  1  0  0  0  0
 25 24  1  0  0  0  0
 26  6  1  0  0  0  0
 27 26  2  0  0  0  0
 28 26  1  0  0  0  0
 29 28  1  0  0  0  0
M  RAD  4   2   2   3   2  10   3  11   2
M  END
