Coordinates from ORCA-job 1g-Schema5-R8-G+-B3LYPG-6-31G_dp-scan-d49-09-n400
 OpenBabel08281819463D

 29 29  0  0  0  0  0  0  0  0999 V2000
   -3.6573   -1.2637   -1.4412 C   0  0  0  0  0  0  0  0  0  0  0  0
   -3.1737   -0.7173   -0.2687 C   0  0  0  0  0  0  0  0  0  0  0  0
   -3.3735    0.4628    0.0967 C   0  0  0  0  0  0  0  0  0  0  0  0
   -4.0615    1.4829   -0.5282 C   0  0  0  0  0  0  0  0  0  0  0  0
   -4.5824    1.0196   -1.7565 C   0  0  0  0  0  0  0  0  0  0  0  0
   -4.3782   -0.3034   -2.2087 C   0  0  0  0  0  0  0  0  0  0  0  0
   -3.5620   -2.2901   -1.7783 H   0  0  0  0  0  0  0  0  0  0  0  0
   -5.1592    1.7012   -2.3735 H   0  0  0  0  0  0  0  0  0  0  0  0
   -4.2198    2.4927   -0.1695 H   0  0  0  0  0  0  0  0  0  0  0  0
   -1.3688   -0.9123   -3.1033 N   0  0  0  0  0  0  0  0  0  0  0  0
   -1.2174   -1.8002   -3.7638 N   0  0  0  0  0  0  0  0  0  0  0  0
   -1.0044   -2.9119   -4.5532 C   0  0  0  0  0  0  0  0  0  0  0  0
   -2.1231   -3.5558   -5.1162 C   0  0  0  0  0  0  0  0  0  0  0  0
    0.3307   -3.3327   -4.7355 C   0  0  0  0  0  0  0  0  0  0  0  0
   -1.8732   -4.6789   -5.8944 C   0  0  0  0  0  0  0  0  0  0  0  0
   -3.1198   -3.1653   -4.9390 H   0  0  0  0  0  0  0  0  0  0  0  0
    0.5348   -4.4569   -5.5158 C   0  0  0  0  0  0  0  0  0  0  0  0
    1.1535   -2.7952   -4.2779 H   0  0  0  0  0  0  0  0  0  0  0  0
   -0.5583   -5.1278   -6.0911 C   0  0  0  0  0  0  0  0  0  0  0  0
   -2.6978   -5.2128   -6.3511 H   0  0  0  0  0  0  0  0  0  0  0  0
    1.5337   -4.8386   -5.6960 H   0  0  0  0  0  0  0  0  0  0  0  0
   -0.2470   -6.3452   -6.9222 C   0  0  0  0  0  0  0  0  0  0  0  0
    0.8807   -6.7452   -7.0967 O   0  0  0  0  0  0  0  0  0  0  0  0
   -1.3536   -6.9136   -7.4229 O   0  0  0  0  0  0  0  0  0  0  0  0
   -1.0823   -7.6929   -7.9390 H   0  0  0  0  0  0  0  0  0  0  0  0
   -4.8557   -0.7412   -3.5453 C   0  0  0  0  0  0  0  0  0  0  0  0
   -4.3801   -1.6929   -4.1525 O   0  0  0  0  0  0  0  0  0  0  0  0
   -5.8429    0.0118   -4.0459 O   0  0  0  0  0  0  0  0  0  0  0  0
   -6.0733   -0.3429   -4.9216 H   0  0  0  0  0  0  0  0  0  0  0  0
  1  2  2  0  0  0  0
  2  3  1  0  0  0  0
  4  9  1  0  0  0  0
  4  3  2  0  0  0  0
  5  4  1  0  0  0  0
  6  5  2  0  0  0  0
  6  1  1  0  0  0  0
  7  1  1  0  0  0  0
  8  5  1  0  0  0  0
 11 10  1  0  0  0  0
 12 11  1  0  0  0  0
 13 16  1  0  0  0  0
 13 12  2  0  0  0  0
 14 12  1  0  0  0  0
 14 18  1  0  0  0  0
 15 13  1  0  0  0  0
 17 14  2  0  0  0  0
 19 15  2  0  0  0  0
 19 17  1  0  0  0  0
 20 15  1  0  0  0  0
 21 17  1  0  0  0  0
 22 19  1  0  0  0  0
 23 22  2  0  0  0  0
 24 22  1  0  0  0  0
 25 24  1  0  0  0  0
 26  6  1  0  0  0  0
 27 26  2  0  0  0  0
 28 26  1  0  0  0  0
 29 28  1  0  0  0  0
M  RAD  4   2   2   3   2  10   3  11   2
M  END
