Coordinates from ORCA-job 1g-Schema5-R8-G+-B3LYPG-6-31G_dp-scan-d49-09-n400
 OpenBabel08281819463D

 29 31  0  0  1  0  0  0  0  0999 V2000
   -4.0737   -1.6708   -1.6413 C   0  0  0  0  0  0  0  0  0  0  0  0
   -3.2279   -2.5551   -2.3095 C   0  0  0  0  0  0  0  0  0  0  0  0
   -2.9905   -2.4734   -3.6877 C   0  0  0  0  0  0  0  0  0  0  0  0
   -3.6331   -1.4807   -4.4189 C   0  0  0  0  0  0  0  0  0  0  0  0
   -4.4634   -0.5650   -3.7574 C   0  0  0  0  0  0  0  0  0  0  0  0
   -4.6900   -0.6576   -2.3760 C   0  0  0  0  0  0  0  0  0  0  0  0
   -4.2523   -1.7715   -0.5759 H   0  0  0  0  0  0  0  0  0  0  0  0
   -4.9354    0.2335   -4.3187 H   0  0  0  0  0  0  0  0  0  0  0  0
   -3.4860   -1.3838   -5.4895 H   0  0  0  0  0  0  0  0  0  0  0  0
   -2.6290   -3.6689   -1.4815 N   0  0  0  0  0  0  0  0  0  0  0  0
   -1.6412   -4.2936   -1.9604 N   0  0  0  0  0  0  0  0  0  0  0  0
   -1.1992   -4.1148   -3.2550 C   0  0  0  0  0  0  0  0  0  0  0  0
   -2.1155   -3.5782   -4.2918 C   0  0  2  0  0  0  0  0  0  0  0  0
    0.1092   -4.4877   -3.5561 C   0  0  0  0  0  0  0  0  0  0  0  0
   -1.5087   -3.3768   -5.6321 C   0  0  0  0  0  0  0  0  0  0  0  0
   -2.8495   -4.3972   -4.4941 H   0  0  0  0  0  0  0  0  0  0  0  0
    0.5962   -4.2749   -4.8393 C   0  0  0  0  0  0  0  0  0  0  0  0
    0.7312   -4.9054   -2.7714 H   0  0  0  0  0  0  0  0  0  0  0  0
   -0.2143   -3.7286   -5.8825 C   0  0  0  0  0  0  0  0  0  0  0  0
   -2.1397   -3.0168   -6.4378 H   0  0  0  0  0  0  0  0  0  0  0  0
    1.6232   -4.5254   -5.0913 H   0  0  0  0  0  0  0  0  0  0  0  0
    0.4315   -3.5678   -7.2328 C   0  0  0  0  0  0  0  0  0  0  0  0
    1.5889   -3.8488   -7.4338 O   0  0  0  0  0  0  0  0  0  0  0  0
   -0.4232   -3.0830   -8.1454 O   0  0  0  0  0  0  0  0  0  0  0  0
    0.0528   -2.9987   -8.9905 H   0  0  0  0  0  0  0  0  0  0  0  0
   -5.5873    0.2918   -1.6377 C   0  0  0  0  0  0  0  0  0  0  0  0
   -5.7948    0.2170   -0.4484 O   0  0  0  0  0  0  0  0  0  0  0  0
   -6.1231    1.2204   -2.4500 O   0  0  0  0  0  0  0  0  0  0  0  0
   -6.6867    1.7959   -1.9044 H   0  0  0  0  0  0  0  0  0  0  0  0
  1  7  1  0  0  0  0
  2  1  1  0  0  0  0
  2 10  1  0  0  0  0
  3  2  2  0  0  0  0
  4  5  2  0  0  0  0
  4  3  1  0  0  0  0
  5  6  1  0  0  0  0
  6  1  2  0  0  0  0
  6 26  1  0  0  0  0
  8  5  1  0  0  0  0
  9  4  1  0  0  0  0
 11 10  2  0  0  0  0
 12 11  1  0  0  0  0
 13 16  1  6  0  0  0
 13  3  1  0  0  0  0
 13 12  1  0  0  0  0
 14 12  2  0  0  0  0
 14 18  1  0  0  0  0
 15 13  1  0  0  0  0
 17 14  1  0  0  0  0
 19 15  2  0  0  0  0
 19 17  1  0  0  0  0
 20 15  1  0  0  0  0
 21 17  1  0  0  0  0
 22 19  1  0  0  0  0
 23 22  2  0  0  0  0
 24 22  1  0  0  0  0
 25 24  1  0  0  0  0
 26 27  2  0  0  0  0
 28 29  1  0  0  0  0
 28 26  1  0  0  0  0
M  RAD  1  17   2
M  END
