Coordinates from ORCA-job Ph-N2-X-OTs-B3LYPG-6-31G_dp-scan-d09-49-n400
 OpenBabel08281821093D

 31 31  0  0  0  0  0  0  0  0999 V2000
   -0.3641    0.8369   -1.0277 C   0  0  0  0  0  0  0  0  0  0  0  0
    0.6778    0.8764   -1.9500 C   0  0  0  0  0  0  0  0  0  0  0  0
    0.7102    1.9454   -2.8612 C   0  0  0  0  0  0  0  0  0  0  0  0
   -0.2643    2.9540   -2.8555 C   0  0  0  0  0  0  0  0  0  0  0  0
   -1.2949    2.8932   -1.9244 C   0  0  0  0  0  0  0  0  0  0  0  0
   -1.3437    1.8348   -1.0124 C   0  0  0  0  0  0  0  0  0  0  0  0
   -0.4103    0.0183   -0.3162 H   0  0  0  0  0  0  0  0  0  0  0  0
    1.4469    0.1173   -1.9846 H   0  0  0  0  0  0  0  0  0  0  0  0
   -0.1972    3.7602   -3.5781 H   0  0  0  0  0  0  0  0  0  0  0  0
   -2.0570    3.6659   -1.9093 H   0  0  0  0  0  0  0  0  0  0  0  0
    1.7109    2.0807   -3.8385 N   0  0  0  0  0  0  0  0  0  0  0  0
    2.6619    1.5754   -4.2824 N   0  0  0  0  0  0  0  0  0  0  0  0
    5.9264    0.8180   -5.3540 C   0  0  0  0  0  0  0  0  0  0  0  0
    7.1529    1.4819   -5.3282 C   0  0  0  0  0  0  0  0  0  0  0  0
    8.0500    1.3075   -4.2659 C   0  0  0  0  0  0  0  0  0  0  0  0
    7.6865    0.4445   -3.2204 C   0  0  0  0  0  0  0  0  0  0  0  0
    6.4664   -0.2266   -3.2316 C   0  0  0  0  0  0  0  0  0  0  0  0
    5.5885   -0.0306   -4.3001 C   0  0  0  0  0  0  0  0  0  0  0  0
    5.2383    0.9410   -6.1831 H   0  0  0  0  0  0  0  0  0  0  0  0
    7.4205    2.1412   -6.1501 H   0  0  0  0  0  0  0  0  0  0  0  0
    8.3721    0.2926   -2.3902 H   0  0  0  0  0  0  0  0  0  0  0  0
    6.1955   -0.9074   -2.4319 H   0  0  0  0  0  0  0  0  0  0  0  0
    4.0089   -0.8784   -4.3119 S   0  0  0  0  0  0  0  0  0  0  0  0
    4.1824   -2.1526   -3.6073 O   0  0  0  0  0  0  0  0  0  0  0  0
    3.5050   -0.8598   -5.6884 O   0  0  0  0  0  0  0  0  0  0  0  0
    3.0859    0.0312   -3.3855 O   0  0  0  0  0  0  0  0  0  0  0  0
    9.3909    2.0029   -4.2595 C   0  0  0  0  0  0  0  0  0  0  0  0
   10.1769    1.3451   -4.6509 H   0  0  0  0  0  0  0  0  0  0  0  0
    9.3787    2.9030   -4.8806 H   0  0  0  0  0  0  0  0  0  0  0  0
    9.6868    2.2919   -3.2467 H   0  0  0  0  0  0  0  0  0  0  0  0
   -2.1494    1.7869   -0.2855 H   0  0  0  0  0  0  0  0  0  0  0  0
  1  6  1  0  0  0  0
  1  7  1  0  0  0  0
  2  1  2  0  0  0  0
  3  4  2  0  0  0  0
  3  2  1  0  0  0  0
  4  5  1  0  0  0  0
  5 10  1  0  0  0  0
  5  6  2  0  0  0  0
  6 31  1  0  0  0  0
  8  2  1  0  0  0  0
  9  4  1  0  0  0  0
 11  3  1  0  0  0  0
 12 11  2  0  0  0  0
 13 14  2  0  0  0  0
 13 18  1  0  0  0  0
 14 15  1  0  0  0  0
 15 27  1  0  0  0  0
 15 16  2  0  0  0  0
 16 21  1  0  0  0  0
 17 16  1  0  0  0  0
 17 22  1  0  0  0  0
 18 17  2  0  0  0  0
 19 13  1  0  0  0  0
 20 14  1  0  0  0  0
 23 18  1  0  0  0  0
 23 24  2  0  0  0  0
 23 26  1  0  0  0  0
 25 23  2  0  0  0  0
 27 30  1  0  0  0  0
 28 27  1  0  0  0  0
 29 27  1  0  0  0  0
M  RAD  2  12   2  26   2
M  END
