Coordinates from ORCA-job Ph-N2-X-OTs-B3LYPG-6-31G_dp-scan-d09-49-n400
 OpenBabel08281821093D

 31 31  0  0  0  0  0  0  0  0999 V2000
   -0.5706    0.4708   -1.4137 C   0  0  0  0  0  0  0  0  0  0  0  0
    0.6473    1.0011   -1.8278 C   0  0  0  0  0  0  0  0  0  0  0  0
    0.6179    2.2009   -2.5573 C   0  0  0  0  0  0  0  0  0  0  0  0
   -0.5736    2.8698   -2.8681 C   0  0  0  0  0  0  0  0  0  0  0  0
   -1.7758    2.3153   -2.4443 C   0  0  0  0  0  0  0  0  0  0  0  0
   -1.7718    1.1189   -1.7198 C   0  0  0  0  0  0  0  0  0  0  0  0
   -0.5796   -0.4584   -0.8539 H   0  0  0  0  0  0  0  0  0  0  0  0
    1.5990    0.5307   -1.6141 H   0  0  0  0  0  0  0  0  0  0  0  0
   -0.5394    3.7952   -3.4320 H   0  0  0  0  0  0  0  0  0  0  0  0
   -2.7115    2.8114   -2.6779 H   0  0  0  0  0  0  0  0  0  0  0  0
    1.8045    2.7916   -3.0121 N   0  0  0  0  0  0  0  0  0  0  0  0
    2.9447    2.7238   -3.1352 N   0  0  0  0  0  0  0  0  0  0  0  0
    5.9105    1.1666   -5.0318 C   0  0  0  0  0  0  0  0  0  0  0  0
    7.2324    1.4637   -5.3640 C   0  0  0  0  0  0  0  0  0  0  0  0
    8.2979    1.0026   -4.5801 C   0  0  0  0  0  0  0  0  0  0  0  0
    8.0053    0.2294   -3.4461 C   0  0  0  0  0  0  0  0  0  0  0  0
    6.6912   -0.0774   -3.1029 C   0  0  0  0  0  0  0  0  0  0  0  0
    5.6466    0.3991   -3.8982 C   0  0  0  0  0  0  0  0  0  0  0  0
    5.0863    1.5112   -5.6461 H   0  0  0  0  0  0  0  0  0  0  0  0
    7.4400    2.0587   -6.2500 H   0  0  0  0  0  0  0  0  0  0  0  0
    8.8188   -0.1403   -2.8269 H   0  0  0  0  0  0  0  0  0  0  0  0
    6.4696   -0.6886   -2.2344 H   0  0  0  0  0  0  0  0  0  0  0  0
    3.9511    0.0329   -3.4414 S   0  0  0  0  0  0  0  0  0  0  0  0
    3.9334   -1.3160   -2.8576 O   0  0  0  0  0  0  0  0  0  0  0  0
    3.1077    0.3096   -4.6199 O   0  0  0  0  0  0  0  0  0  0  0  0
    3.6213    1.0603   -2.3089 O   0  0  0  0  0  0  0  0  0  0  0  0
    9.7286    1.3005   -4.9618 C   0  0  0  0  0  0  0  0  0  0  0  0
   10.1647    0.4730   -5.5362 H   0  0  0  0  0  0  0  0  0  0  0  0
    9.7988    2.1998   -5.5811 H   0  0  0  0  0  0  0  0  0  0  0  0
   10.3568    1.4462   -4.0777 H   0  0  0  0  0  0  0  0  0  0  0  0
   -2.7125    0.6884   -1.3909 H   0  0  0  0  0  0  0  0  0  0  0  0
  1  7  1  0  0  0  0
  2  8  1  0  0  0  0
  2  1  2  0  0  0  0
  3  2  1  0  0  0  0
  4  3  2  0  0  0  0
  4  5  1  0  0  0  0
  5  6  2  0  0  0  0
  6  1  1  0  0  0  0
  6 31  1  0  0  0  0
  9  4  1  0  0  0  0
 10  5  1  0  0  0  0
 11  3  1  0  0  0  0
 12 11  2  0  0  0  0
 13 18  1  0  0  0  0
 14 13  2  0  0  0  0
 14 15  1  0  0  0  0
 15 16  2  0  0  0  0
 16 17  1  0  0  0  0
 16 21  1  0  0  0  0
 17 22  1  0  0  0  0
 18 23  1  0  0  0  0
 18 17  2  0  0  0  0
 19 13  1  0  0  0  0
 20 14  1  0  0  0  0
 23 24  2  0  0  0  0
 23 26  1  0  0  0  0
 25 23  2  0  0  0  0
 27 15  1  0  0  0  0
 27 30  1  0  0  0  0
 28 27  1  0  0  0  0
 29 27  1  0  0  0  0
M  RAD  2  12   2  26   2
M  END
