Coordinates from ORCA-job Ph-N2-X-OTs-B3LYPG-6-31G_dp-scan-d09-49-n400
 OpenBabel08281821093D

 31 31  0  0  0  0  0  0  0  0999 V2000
   -0.1107    1.1601   -0.7638 C   0  0  0  0  0  0  0  0  0  0  0  0
    0.9042    1.2262   -1.7146 C   0  0  0  0  0  0  0  0  0  0  0  0
    0.6734    1.9841   -2.8729 C   0  0  0  0  0  0  0  0  0  0  0  0
   -0.5261    2.6791   -3.0785 C   0  0  0  0  0  0  0  0  0  0  0  0
   -1.5330    2.5823   -2.1240 C   0  0  0  0  0  0  0  0  0  0  0  0
   -1.3239    1.8246   -0.9680 C   0  0  0  0  0  0  0  0  0  0  0  0
    0.0472    0.5813    0.1405 H   0  0  0  0  0  0  0  0  0  0  0  0
    1.8491    0.7221   -1.5748 H   0  0  0  0  0  0  0  0  0  0  0  0
   -0.6522    3.2666   -3.9813 H   0  0  0  0  0  0  0  0  0  0  0  0
   -2.4735    3.1012   -2.2765 H   0  0  0  0  0  0  0  0  0  0  0  0
    1.6464    2.1334   -3.8776 N   0  0  0  0  0  0  0  0  0  0  0  0
    2.6101    1.6537   -4.3200 N   0  0  0  0  0  0  0  0  0  0  0  0
    5.9065    0.9895   -5.2846 C   0  0  0  0  0  0  0  0  0  0  0  0
    7.1586    1.5991   -5.2077 C   0  0  0  0  0  0  0  0  0  0  0  0
    8.0850    1.2312   -4.2227 C   0  0  0  0  0  0  0  0  0  0  0  0
    7.7245    0.2293   -3.3089 C   0  0  0  0  0  0  0  0  0  0  0  0
    6.4775   -0.3881   -3.3710 C   0  0  0  0  0  0  0  0  0  0  0  0
    5.5709    0.0015   -4.3590 C   0  0  0  0  0  0  0  0  0  0  0  0
    5.1965    1.2615   -6.0578 H   0  0  0  0  0  0  0  0  0  0  0  0
    7.4229    2.3689   -5.9284 H   0  0  0  0  0  0  0  0  0  0  0  0
    8.4334   -0.0739   -2.5422 H   0  0  0  0  0  0  0  0  0  0  0  0
    6.2069   -1.1758   -2.6760 H   0  0  0  0  0  0  0  0  0  0  0  0
    3.9547   -0.7729   -4.4307 S   0  0  0  0  0  0  0  0  0  0  0  0
    4.0794   -2.1100   -3.8417 O   0  0  0  0  0  0  0  0  0  0  0  0
    3.4499   -0.6199   -5.7990 O   0  0  0  0  0  0  0  0  0  0  0  0
    3.0730    0.1053   -3.4344 O   0  0  0  0  0  0  0  0  0  0  0  0
    9.4519    1.8715   -4.1640 C   0  0  0  0  0  0  0  0  0  0  0  0
   10.2036    1.2405   -4.6542 H   0  0  0  0  0  0  0  0  0  0  0  0
    9.4609    2.8417   -4.6680 H   0  0  0  0  0  0  0  0  0  0  0  0
    9.7800    2.0210   -3.1308 H   0  0  0  0  0  0  0  0  0  0  0  0
   -2.1079    1.7556   -0.2195 H   0  0  0  0  0  0  0  0  0  0  0  0
  1  7  1  0  0  0  0
  2  8  1  0  0  0  0
  2  1  2  0  0  0  0
  3  2  1  0  0  0  0
  4  3  2  0  0  0  0
  4  5  1  0  0  0  0
  5  6  2  0  0  0  0
  6  1  1  0  0  0  0
  6 31  1  0  0  0  0
  9  4  1  0  0  0  0
 10  5  1  0  0  0  0
 11  3  1  0  0  0  0
 12 11  2  0  0  0  0
 13 14  2  0  0  0  0
 13 18  1  0  0  0  0
 14 15  1  0  0  0  0
 15 27  1  0  0  0  0
 15 16  2  0  0  0  0
 16 21  1  0  0  0  0
 17 16  1  0  0  0  0
 17 22  1  0  0  0  0
 18 17  2  0  0  0  0
 19 13  1  0  0  0  0
 20 14  1  0  0  0  0
 23 18  1  0  0  0  0
 23 24  2  0  0  0  0
 23 26  1  0  0  0  0
 25 23  2  0  0  0  0
 27 30  1  0  0  0  0
 28 27  1  0  0  0  0
 29 27  1  0  0  0  0
M  RAD  2  12   2  26   2
M  END
