Coordinates from ORCA-job Ph-N2-X-OTs-B3LYPG-6-31G_dp-scan-d09-49-n400
 OpenBabel08281821093D

 31 31  0  0  0  0  0  0  0  0999 V2000
   -0.4792    0.4321   -1.3909 C   0  0  0  0  0  0  0  0  0  0  0  0
    0.6832    1.0518   -1.8388 C   0  0  0  0  0  0  0  0  0  0  0  0
    0.5409    2.2349   -2.5822 C   0  0  0  0  0  0  0  0  0  0  0  0
   -0.7062    2.8027   -2.8751 C   0  0  0  0  0  0  0  0  0  0  0  0
   -1.8502    2.1604   -2.4163 C   0  0  0  0  0  0  0  0  0  0  0  0
   -1.7346    0.9783   -1.6772 C   0  0  0  0  0  0  0  0  0  0  0  0
   -0.4011   -0.4875   -0.8208 H   0  0  0  0  0  0  0  0  0  0  0  0
    1.6731    0.6592   -1.6410 H   0  0  0  0  0  0  0  0  0  0  0  0
   -0.7586    3.7194   -3.4516 H   0  0  0  0  0  0  0  0  0  0  0  0
   -2.8276    2.5768   -2.6347 H   0  0  0  0  0  0  0  0  0  0  0  0
    1.6688    2.9074   -3.0703 N   0  0  0  0  0  0  0  0  0  0  0  0
    2.8047    2.9443   -3.2207 N   0  0  0  0  0  0  0  0  0  0  0  0
    5.9729    1.2637   -5.0291 C   0  0  0  0  0  0  0  0  0  0  0  0
    7.3127    1.4665   -5.3568 C   0  0  0  0  0  0  0  0  0  0  0  0
    8.3408    0.9239   -4.5732 C   0  0  0  0  0  0  0  0  0  0  0  0
    7.9905    0.1679   -3.4454 C   0  0  0  0  0  0  0  0  0  0  0  0
    6.6558   -0.0449   -3.1058 C   0  0  0  0  0  0  0  0  0  0  0  0
    5.6513    0.5100   -3.9000 C   0  0  0  0  0  0  0  0  0  0  0  0
    5.1772    1.6695   -5.6438 H   0  0  0  0  0  0  0  0  0  0  0  0
    7.5646    2.0505   -6.2388 H   0  0  0  0  0  0  0  0  0  0  0  0
    8.7739   -0.2635   -2.8277 H   0  0  0  0  0  0  0  0  0  0  0  0
    6.3876   -0.6437   -2.2419 H   0  0  0  0  0  0  0  0  0  0  0  0
    3.9323    0.2675   -3.4477 S   0  0  0  0  0  0  0  0  0  0  0  0
    3.8280   -1.0574   -2.8162 O   0  0  0  0  0  0  0  0  0  0  0  0
    3.1159    0.5421   -4.6470 O   0  0  0  0  0  0  0  0  0  0  0  0
    3.6526    1.3543   -2.3638 O   0  0  0  0  0  0  0  0  0  0  0  0
    9.7890    1.1208   -4.9543 C   0  0  0  0  0  0  0  0  0  0  0  0
   10.1075    0.3754   -5.6940 H   0  0  0  0  0  0  0  0  0  0  0  0
    9.9562    2.1075   -5.3974 H   0  0  0  0  0  0  0  0  0  0  0  0
   10.4482    1.0222   -4.0869 H   0  0  0  0  0  0  0  0  0  0  0  0
   -2.6306    0.4786   -1.3224 H   0  0  0  0  0  0  0  0  0  0  0  0
  1  7  1  0  0  0  0
  2  8  1  0  0  0  0
  2  1  2  0  0  0  0
  3  2  1  0  0  0  0
  4  3  2  0  0  0  0
  4  5  1  0  0  0  0
  5  6  2  0  0  0  0
  6  1  1  0  0  0  0
  6 31  1  0  0  0  0
  9  4  1  0  0  0  0
 10  5  1  0  0  0  0
 11  3  1  0  0  0  0
 12 11  2  0  0  0  0
 13 18  1  0  0  0  0
 14 13  2  0  0  0  0
 14 15  1  0  0  0  0
 15 16  2  0  0  0  0
 16 17  1  0  0  0  0
 16 21  1  0  0  0  0
 17 22  1  0  0  0  0
 18 23  1  0  0  0  0
 18 17  2  0  0  0  0
 19 13  1  0  0  0  0
 20 14  1  0  0  0  0
 23 24  2  0  0  0  0
 23 26  1  0  0  0  0
 25 23  2  0  0  0  0
 27 15  1  0  0  0  0
 27 30  1  0  0  0  0
 28 27  1  0  0  0  0
 29 27  1  0  0  0  0
M  RAD  2  12   2  26   2
M  END
