Coordinates from ORCA-job Ph-N2-X-OTs-B3LYPG-6-31G_dp-scan-d09-49-n400
 OpenBabel08281821093D

 31 32  0  0  0  0  0  0  0  0999 V2000
    0.0316    1.4588   -0.6141 C   0  0  0  0  0  0  0  0  0  0  0  0
    1.0474    1.6437   -1.5487 C   0  0  0  0  0  0  0  0  0  0  0  0
    0.6917    2.0674   -2.8350 C   0  0  0  0  0  0  0  0  0  0  0  0
   -0.6344    2.3415   -3.1863 C   0  0  0  0  0  0  0  0  0  0  0  0
   -1.6359    2.1212   -2.2452 C   0  0  0  0  0  0  0  0  0  0  0  0
   -1.3037    1.6825   -0.9608 C   0  0  0  0  0  0  0  0  0  0  0  0
    0.2873    1.1322    0.3886 H   0  0  0  0  0  0  0  0  0  0  0  0
    2.0853    1.4905   -1.2859 H   0  0  0  0  0  0  0  0  0  0  0  0
   -0.8617    2.6990   -4.1843 H   0  0  0  0  0  0  0  0  0  0  0  0
   -2.6718    2.3056   -2.5105 H   0  0  0  0  0  0  0  0  0  0  0  0
    1.6729    2.3302   -3.8183 N   0  0  0  0  0  0  0  0  0  0  0  0
    2.6551    1.8699   -4.2468 N   0  0  0  0  0  0  0  0  0  0  0  0
    5.9228    1.0963   -5.2817 C   0  0  0  0  0  0  0  0  0  0  0  0
    7.2098    1.6209   -5.1698 C   0  0  0  0  0  0  0  0  0  0  0  0
    8.1077    1.1411   -4.2067 C   0  0  0  0  0  0  0  0  0  0  0  0
    7.6819    0.1134   -3.3521 C   0  0  0  0  0  0  0  0  0  0  0  0
    6.3994   -0.4212   -3.4498 C   0  0  0  0  0  0  0  0  0  0  0  0
    5.5230    0.0798   -4.4142 C   0  0  0  0  0  0  0  0  0  0  0  0
    5.2338    1.4573   -6.0373 H   0  0  0  0  0  0  0  0  0  0  0  0
    7.5227    2.4128   -5.8458 H   0  0  0  0  0  0  0  0  0  0  0  0
    8.3665   -0.2765   -2.6028 H   0  0  0  0  0  0  0  0  0  0  0  0
    6.0788   -1.2281   -2.7993 H   0  0  0  0  0  0  0  0  0  0  0  0
    3.8609   -0.5811   -4.5275 S   0  0  0  0  0  0  0  0  0  0  0  0
    3.8944   -1.9613   -4.0358 O   0  0  0  0  0  0  0  0  0  0  0  0
    3.3577   -0.2949   -5.8748 O   0  0  0  0  0  0  0  0  0  0  0  0
    3.0406    0.2828   -3.4589 O   0  0  0  0  0  0  0  0  0  0  0  0
    9.5110    1.6911   -4.1120 C   0  0  0  0  0  0  0  0  0  0  0  0
   10.2136    1.0780   -4.6896 H   0  0  0  0  0  0  0  0  0  0  0  0
    9.5691    2.7102   -4.5045 H   0  0  0  0  0  0  0  0  0  0  0  0
    9.8675    1.7038   -3.0774 H   0  0  0  0  0  0  0  0  0  0  0  0
   -2.0857    1.5239   -0.2247 H   0  0  0  0  0  0  0  0  0  0  0  0
  1  7  1  0  0  0  0
  2  8  1  0  0  0  0
  2  1  2  0  0  0  0
  3  2  1  0  0  0  0
  4  3  2  0  0  0  0
  4  5  1  0  0  0  0
  5  6  2  0  0  0  0
  6  1  1  0  0  0  0
  6 31  1  0  0  0  0
  9  4  1  0  0  0  0
 10  5  1  0  0  0  0
 11  3  1  0  0  0  0
 12 11  1  0  0  0  0
 12 26  1  0  0  0  0
 13 14  2  0  0  0  0
 13 18  1  0  0  0  0
 14 15  1  0  0  0  0
 15 27  1  0  0  0  0
 15 16  2  0  0  0  0
 16 21  1  0  0  0  0
 17 16  1  0  0  0  0
 17 22  1  0  0  0  0
 18 17  2  0  0  0  0
 19 13  1  0  0  0  0
 20 14  1  0  0  0  0
 23 18  1  0  0  0  0
 23 24  2  0  0  0  0
 23 26  1  0  0  0  0
 25 23  2  0  0  0  0
 27 30  1  0  0  0  0
 28 27  1  0  0  0  0
 29 27  1  0  0  0  0
M  RAD  2  11   2  12   2
M  END
