Coordinates from ORCA-job Ph-N2-X-OTs-B3LYPG-6-31G_dp-scan-d09-49-n400
 OpenBabel08281821093D

 31 31  0  0  0  0  0  0  0  0999 V2000
    0.2945   -0.0730   -1.9159 C   0  0  0  0  0  0  0  0  0  0  0  0
    0.9198    0.9321   -2.6647 C   0  0  0  0  0  0  0  0  0  0  0  0
    0.2252    2.1527   -2.6832 C   0  0  0  0  0  0  0  0  0  0  0  0
   -1.0002    2.4224   -2.0411 C   0  0  0  0  0  0  0  0  0  0  0  0
   -1.5665    1.3889   -1.3156 C   0  0  0  0  0  0  0  0  0  0  0  0
   -0.9159    0.1437   -1.2560 C   0  0  0  0  0  0  0  0  0  0  0  0
    0.7711   -1.0474   -1.8557 H   0  0  0  0  0  0  0  0  0  0  0  0
    1.9540    0.7756   -3.2720 H   0  0  0  0  0  0  0  0  0  0  0  0
   -1.4678    3.3986   -2.1148 H   0  0  0  0  0  0  0  0  0  0  0  0
   -2.5086    1.5413   -0.8009 H   0  0  0  0  0  0  0  0  0  0  0  0
    0.8034    3.1852   -3.4136 N   0  0  0  0  0  0  0  0  0  0  0  0
    1.4303    3.9030   -4.0002 N   0  0  0  0  0  0  0  0  0  0  0  0
    6.2455    0.7405   -5.4797 C   0  0  0  0  0  0  0  0  0  0  0  0
    7.5864    0.3867   -5.3302 C   0  0  0  0  0  0  0  0  0  0  0  0
    8.2616    0.5989   -4.1213 C   0  0  0  0  0  0  0  0  0  0  0  0
    7.5583    1.1901   -3.0608 C   0  0  0  0  0  0  0  0  0  0  0  0
    6.2188    1.5470   -3.1949 C   0  0  0  0  0  0  0  0  0  0  0  0
    5.5657    1.3151   -4.4068 C   0  0  0  0  0  0  0  0  0  0  0  0
    5.7256    0.5919   -6.4199 H   0  0  0  0  0  0  0  0  0  0  0  0
    8.1183   -0.0560   -6.1689 H   0  0  0  0  0  0  0  0  0  0  0  0
    8.0703    1.3796   -2.1201 H   0  0  0  0  0  0  0  0  0  0  0  0
    5.6841    2.0218   -2.3792 H   0  0  0  0  0  0  0  0  0  0  0  0
    3.8277    1.7237   -4.5870 S   0  0  0  0  0  0  0  0  0  0  0  0
    3.0845    0.5527   -3.9581 O   0  0  0  0  0  0  0  0  0  0  0  0
    3.5535    1.8727   -6.0263 O   0  0  0  0  0  0  0  0  0  0  0  0
    3.6107    2.9573   -3.7598 O   0  0  0  0  0  0  0  0  0  0  0  0
    9.7056    0.1876   -3.9551 C   0  0  0  0  0  0  0  0  0  0  0  0
    9.7832   -0.7931   -3.4684 H   0  0  0  0  0  0  0  0  0  0  0  0
   10.2145    0.1140   -4.9203 H   0  0  0  0  0  0  0  0  0  0  0  0
   10.2570    0.9003   -3.3336 H   0  0  0  0  0  0  0  0  0  0  0  0
   -1.3710   -0.6630   -0.6881 H   0  0  0  0  0  0  0  0  0  0  0  0
  1  7  1  0  0  0  0
  1  6  2  0  0  0  0
  2  1  1  0  0  0  0
  3  2  2  0  0  0  0
  3  4  1  0  0  0  0
  4  5  2  0  0  0  0
  5  6  1  0  0  0  0
  5 10  1  0  0  0  0
  6 31  1  0  0  0  0
  8  2  1  0  0  0  0
  9  4  1  0  0  0  0
 11  3  1  0  0  0  0
 12 11  1  0  0  0  0
 13 14  2  0  0  0  0
 13 18  1  0  0  0  0
 14 15  1  0  0  0  0
 15 27  1  0  0  0  0
 15 16  2  0  0  0  0
 16 21  1  0  0  0  0
 17 16  1  0  0  0  0
 17 22  1  0  0  0  0
 18 17  2  0  0  0  0
 19 13  1  0  0  0  0
 20 14  1  0  0  0  0
 23 18  1  0  0  0  0
 23 24  2  0  0  0  0
 23 26  1  0  0  0  0
 25 23  2  0  0  0  0
 27 28  1  0  0  0  0
 27 30  1  0  0  0  0
 29 27  1  0  0  0  0
M  RAD  3  11   2  12   3  26   2
M  END
