Coordinates from ORCA-job Ph-N2-X-OTs-B3LYPG-6-31G_dp-scan-d09-49-n400
 OpenBabel08281821093D

 31 31  0  0  0  0  0  0  0  0999 V2000
    0.2615   -0.0664   -1.8743 C   0  0  0  0  0  0  0  0  0  0  0  0
    0.9056    0.9218   -2.6282 C   0  0  0  0  0  0  0  0  0  0  0  0
    0.2172    2.1443   -2.6923 C   0  0  0  0  0  0  0  0  0  0  0  0
   -1.0228    2.4281   -2.0869 C   0  0  0  0  0  0  0  0  0  0  0  0
   -1.6093    1.4118   -1.3524 C   0  0  0  0  0  0  0  0  0  0  0  0
   -0.9641    0.1672   -1.2490 C   0  0  0  0  0  0  0  0  0  0  0  0
    0.7348   -1.0397   -1.7821 H   0  0  0  0  0  0  0  0  0  0  0  0
    1.9394    0.7551   -3.2012 H   0  0  0  0  0  0  0  0  0  0  0  0
   -1.4864    3.4031   -2.1935 H   0  0  0  0  0  0  0  0  0  0  0  0
   -2.5633    1.5778   -0.8646 H   0  0  0  0  0  0  0  0  0  0  0  0
    0.8155    3.1603   -3.4303 N   0  0  0  0  0  0  0  0  0  0  0  0
    1.4709    3.8563   -4.0138 N   0  0  0  0  0  0  0  0  0  0  0  0
    6.2512    0.7667   -5.4782 C   0  0  0  0  0  0  0  0  0  0  0  0
    7.5975    0.4233   -5.3534 C   0  0  0  0  0  0  0  0  0  0  0  0
    8.2836    0.6077   -4.1463 C   0  0  0  0  0  0  0  0  0  0  0  0
    7.5857    1.1603   -3.0614 C   0  0  0  0  0  0  0  0  0  0  0  0
    6.2413    1.5063   -3.1706 C   0  0  0  0  0  0  0  0  0  0  0  0
    5.5773    1.3026   -4.3820 C   0  0  0  0  0  0  0  0  0  0  0  0
    5.7215    0.6389   -6.4159 H   0  0  0  0  0  0  0  0  0  0  0  0
    8.1245    0.0102   -6.2101 H   0  0  0  0  0  0  0  0  0  0  0  0
    8.1061    1.3276   -2.1211 H   0  0  0  0  0  0  0  0  0  0  0  0
    5.7112    1.9508   -2.3351 H   0  0  0  0  0  0  0  0  0  0  0  0
    3.8332    1.6967   -4.5314 S   0  0  0  0  0  0  0  0  0  0  0  0
    3.1078    0.5298   -3.8825 O   0  0  0  0  0  0  0  0  0  0  0  0
    3.5309    1.8417   -5.9661 O   0  0  0  0  0  0  0  0  0  0  0  0
    3.6266    2.9377   -3.7085 O   0  0  0  0  0  0  0  0  0  0  0  0
    9.7336    0.2074   -4.0070 C   0  0  0  0  0  0  0  0  0  0  0  0
    9.8271   -0.7789   -3.5350 H   0  0  0  0  0  0  0  0  0  0  0  0
   10.2288    0.1517   -4.9804 H   0  0  0  0  0  0  0  0  0  0  0  0
   10.2877    0.9165   -3.3839 H   0  0  0  0  0  0  0  0  0  0  0  0
   -1.4349   -0.6259   -0.6747 H   0  0  0  0  0  0  0  0  0  0  0  0
  1  7  1  0  0  0  0
  1  6  2  0  0  0  0
  2  1  1  0  0  0  0
  3  2  2  0  0  0  0
  3  4  1  0  0  0  0
  4  5  2  0  0  0  0
  5  6  1  0  0  0  0
  5 10  1  0  0  0  0
  6 31  1  0  0  0  0
  8  2  1  0  0  0  0
  9  4  1  0  0  0  0
 11  3  1  0  0  0  0
 12 11  1  0  0  0  0
 13 14  2  0  0  0  0
 13 18  1  0  0  0  0
 14 15  1  0  0  0  0
 15 27  1  0  0  0  0
 15 16  2  0  0  0  0
 16 21  1  0  0  0  0
 17 16  1  0  0  0  0
 17 22  1  0  0  0  0
 18 17  2  0  0  0  0
 19 13  1  0  0  0  0
 20 14  1  0  0  0  0
 23 18  1  0  0  0  0
 23 24  2  0  0  0  0
 23 26  1  0  0  0  0
 25 23  2  0  0  0  0
 27 28  1  0  0  0  0
 27 30  1  0  0  0  0
 29 27  1  0  0  0  0
M  RAD  3  11   2  12   3  26   2
M  END
