Coordinates from ORCA-job Ph-N2-X-OTs-B3LYPG-6-31G_dp-scan-d09-49-n400
 OpenBabel08281821093D

 31 31  0  0  0  0  0  0  0  0999 V2000
   -0.5900    0.5760   -1.2749 C   0  0  0  0  0  0  0  0  0  0  0  0
    0.6189    1.0077   -1.8126 C   0  0  0  0  0  0  0  0  0  0  0  0
    0.5980    2.1573   -2.6196 C   0  0  0  0  0  0  0  0  0  0  0  0
   -0.5782    2.8714   -2.8855 C   0  0  0  0  0  0  0  0  0  0  0  0
   -1.7720    2.4163   -2.3376 C   0  0  0  0  0  0  0  0  0  0  0  0
   -1.7756    1.2709   -1.5350 C   0  0  0  0  0  0  0  0  0  0  0  0
   -0.6047   -0.3128   -0.6526 H   0  0  0  0  0  0  0  0  0  0  0  0
    1.5578    0.4966   -1.6399 H   0  0  0  0  0  0  0  0  0  0  0  0
   -0.5390    3.7549   -3.5130 H   0  0  0  0  0  0  0  0  0  0  0  0
   -2.6954    2.9499   -2.5354 H   0  0  0  0  0  0  0  0  0  0  0  0
    1.7718    2.6515   -3.2073 N   0  0  0  0  0  0  0  0  0  0  0  0
    2.8953    2.4890   -3.4046 N   0  0  0  0  0  0  0  0  0  0  0  0
    5.9395    1.1167   -5.0906 C   0  0  0  0  0  0  0  0  0  0  0  0
    7.2589    1.4875   -5.3500 C   0  0  0  0  0  0  0  0  0  0  0  0
    8.3076    1.0589   -4.5260 C   0  0  0  0  0  0  0  0  0  0  0  0
    8.0007    0.2430   -3.4262 C   0  0  0  0  0  0  0  0  0  0  0  0
    6.6886   -0.1368   -3.1549 C   0  0  0  0  0  0  0  0  0  0  0  0
    5.6609    0.3080   -3.9894 C   0  0  0  0  0  0  0  0  0  0  0  0
    5.1296    1.4352   -5.7373 H   0  0  0  0  0  0  0  0  0  0  0  0
    7.4784    2.1150   -6.2105 H   0  0  0  0  0  0  0  0  0  0  0  0
    8.8015   -0.1030   -2.7775 H   0  0  0  0  0  0  0  0  0  0  0  0
    6.4564   -0.7817   -2.3141 H   0  0  0  0  0  0  0  0  0  0  0  0
    3.9661   -0.1553   -3.6293 S   0  0  0  0  0  0  0  0  0  0  0  0
    3.9939   -1.4932   -3.0235 O   0  0  0  0  0  0  0  0  0  0  0  0
    3.1808    0.0629   -4.8565 O   0  0  0  0  0  0  0  0  0  0  0  0
    3.5115    0.8652   -2.5257 O   0  0  0  0  0  0  0  0  0  0  0  0
    9.7381    1.4357   -4.8311 C   0  0  0  0  0  0  0  0  0  0  0  0
   10.2429    0.6428   -5.3978 H   0  0  0  0  0  0  0  0  0  0  0  0
    9.7922    2.3496   -5.4299 H   0  0  0  0  0  0  0  0  0  0  0  0
   10.3146    1.5945   -3.9146 H   0  0  0  0  0  0  0  0  0  0  0  0
   -2.7095    0.9173   -1.1092 H   0  0  0  0  0  0  0  0  0  0  0  0
  1  7  1  0  0  0  0
  2  8  1  0  0  0  0
  2  1  2  0  0  0  0
  3  2  1  0  0  0  0
  4  3  2  0  0  0  0
  4  5  1  0  0  0  0
  5  6  2  0  0  0  0
  6  1  1  0  0  0  0
  6 31  1  0  0  0  0
  9  4  1  0  0  0  0
 10  5  1  0  0  0  0
 11  3  1  0  0  0  0
 12 11  2  0  0  0  0
 13 18  1  0  0  0  0
 14 13  2  0  0  0  0
 14 15  1  0  0  0  0
 15 16  2  0  0  0  0
 16 17  1  0  0  0  0
 16 21  1  0  0  0  0
 17 22  1  0  0  0  0
 18 23  1  0  0  0  0
 18 17  2  0  0  0  0
 19 13  1  0  0  0  0
 20 14  1  0  0  0  0
 23 24  2  0  0  0  0
 23 26  1  0  0  0  0
 25 23  2  0  0  0  0
 27 15  1  0  0  0  0
 27 30  1  0  0  0  0
 28 27  1  0  0  0  0
 29 27  1  0  0  0  0
M  RAD  2  12   2  26   2
M  END
