Coordinates from ORCA-job Ph-N2-X-OTs-B3LYPG-6-31G_dp-scan-d09-49-n400
 OpenBabel08281821093D

 31 31  0  0  0  0  0  0  0  0999 V2000
    0.0436    0.2125   -1.4342 C   0  0  0  0  0  0  0  0  0  0  0  0
    0.7668    0.9147   -2.3972 C   0  0  0  0  0  0  0  0  0  0  0  0
    0.2217    2.1354   -2.8248 C   0  0  0  0  0  0  0  0  0  0  0  0
   -0.9921    2.6539   -2.3495 C   0  0  0  0  0  0  0  0  0  0  0  0
   -1.6767    1.9324   -1.3805 C   0  0  0  0  0  0  0  0  0  0  0  0
   -1.1581    0.7135   -0.9263 C   0  0  0  0  0  0  0  0  0  0  0  0
    0.4293   -0.7389   -1.0837 H   0  0  0  0  0  0  0  0  0  0  0  0
    1.6994    0.5204   -2.8168 H   0  0  0  0  0  0  0  0  0  0  0  0
   -1.3660    3.5979   -2.7294 H   0  0  0  0  0  0  0  0  0  0  0  0
   -2.6128    2.3118   -0.9859 H   0  0  0  0  0  0  0  0  0  0  0  0
    0.8908    2.8848   -3.7999 N   0  0  0  0  0  0  0  0  0  0  0  0
    1.7922    3.2040   -4.4155 N   0  0  0  0  0  0  0  0  0  0  0  0
    6.3315    1.3673   -5.4226 C   0  0  0  0  0  0  0  0  0  0  0  0
    7.7237    1.3016   -5.3645 C   0  0  0  0  0  0  0  0  0  0  0  0
    8.3781    0.7490   -4.2560 C   0  0  0  0  0  0  0  0  0  0  0  0
    7.5979    0.2574   -3.1979 C   0  0  0  0  0  0  0  0  0  0  0  0
    6.2074    0.3149   -3.2415 C   0  0  0  0  0  0  0  0  0  0  0  0
    5.5799    0.8743   -4.3568 C   0  0  0  0  0  0  0  0  0  0  0  0
    5.8240    1.7816   -6.2869 H   0  0  0  0  0  0  0  0  0  0  0  0
    8.3108    1.6822   -6.1968 H   0  0  0  0  0  0  0  0  0  0  0  0
    8.0878   -0.1785   -2.3303 H   0  0  0  0  0  0  0  0  0  0  0  0
    5.6056   -0.0802   -2.4305 H   0  0  0  0  0  0  0  0  0  0  0  0
    3.7914    0.9914   -4.4119 S   0  0  0  0  0  0  0  0  0  0  0  0
    3.2615   -0.1738   -3.6519 O   0  0  0  0  0  0  0  0  0  0  0  0
    3.3861    1.0915   -5.8259 O   0  0  0  0  0  0  0  0  0  0  0  0
    3.4848    2.2862   -3.6381 O   0  0  0  0  0  0  0  0  0  0  0  0
    9.8848    0.6567   -4.2063 C   0  0  0  0  0  0  0  0  0  0  0  0
   10.2246   -0.3704   -4.3877 H   0  0  0  0  0  0  0  0  0  0  0  0
   10.3512    1.2953   -4.9614 H   0  0  0  0  0  0  0  0  0  0  0  0
   10.2717    0.9541   -3.2259 H   0  0  0  0  0  0  0  0  0  0  0  0
   -1.7016    0.1478   -0.1754 H   0  0  0  0  0  0  0  0  0  0  0  0
  1  7  1  0  0  0  0
  1  6  2  0  0  0  0
  2  1  1  0  0  0  0
  3  2  2  0  0  0  0
  3  4  1  0  0  0  0
  4  5  2  0  0  0  0
  5 10  1  0  0  0  0
  5  6  1  0  0  0  0
  6 31  1  0  0  0  0
  8  2  1  0  0  0  0
  9  4  1  0  0  0  0
 11  3  1  0  0  0  0
 12 11  2  0  0  0  0
 13 14  2  0  0  0  0
 13 18  1  0  0  0  0
 14 15  1  0  0  0  0
 15 27  1  0  0  0  0
 15 16  2  0  0  0  0
 16 21  1  0  0  0  0
 17 16  1  0  0  0  0
 17 22  1  0  0  0  0
 18 17  2  0  0  0  0
 19 13  1  0  0  0  0
 20 14  1  0  0  0  0
 23 18  1  0  0  0  0
 23 24  2  0  0  0  0
 23 26  1  0  0  0  0
 25 23  2  0  0  0  0
 27 30  1  0  0  0  0
 28 27  1  0  0  0  0
 29 27  1  0  0  0  0
M  RAD  2  12   2  26   2
M  END
