Coordinates from ORCA-job Ph-N2-X-OTs-B3LYPG-6-31G_dp-scan-d09-49-n400
 OpenBabel08281821093D

 31 31  0  0  0  0  0  0  0  0999 V2000
    0.2839   -0.0711   -1.9026 C   0  0  0  0  0  0  0  0  0  0  0  0
    0.9152    0.9288   -2.6529 C   0  0  0  0  0  0  0  0  0  0  0  0
    0.2224    2.1501   -2.6858 C   0  0  0  0  0  0  0  0  0  0  0  0
   -1.0078    2.4242   -2.0555 C   0  0  0  0  0  0  0  0  0  0  0  0
   -1.5805    1.3960   -1.3273 C   0  0  0  0  0  0  0  0  0  0  0  0
   -0.9315    0.1509   -1.2538 C   0  0  0  0  0  0  0  0  0  0  0  0
    0.7596   -1.0452   -1.8324 H   0  0  0  0  0  0  0  0  0  0  0  0
    1.9489    0.7693   -3.2490 H   0  0  0  0  0  0  0  0  0  0  0  0
   -1.4742    3.4001   -2.1396 H   0  0  0  0  0  0  0  0  0  0  0  0
   -2.5266    1.5527   -0.8212 H   0  0  0  0  0  0  0  0  0  0  0  0
    0.8072    3.1775   -3.4185 N   0  0  0  0  0  0  0  0  0  0  0  0
    1.4439    3.8880   -4.0040 N   0  0  0  0  0  0  0  0  0  0  0  0
    6.2476    0.7490   -5.4795 C   0  0  0  0  0  0  0  0  0  0  0  0
    7.5902    0.3983   -5.3378 C   0  0  0  0  0  0  0  0  0  0  0  0
    8.2688    0.6016   -4.1294 C   0  0  0  0  0  0  0  0  0  0  0  0
    7.5671    1.1807   -3.0610 C   0  0  0  0  0  0  0  0  0  0  0  0
    6.2260    1.5343   -3.1872 C   0  0  0  0  0  0  0  0  0  0  0  0
    5.5695    1.3114   -4.3991 C   0  0  0  0  0  0  0  0  0  0  0  0
    5.7245    0.6071   -6.4190 H   0  0  0  0  0  0  0  0  0  0  0  0
    8.1206   -0.0351   -6.1823 H   0  0  0  0  0  0  0  0  0  0  0  0
    8.0817    1.3632   -2.1204 H   0  0  0  0  0  0  0  0  0  0  0  0
    5.6927    1.9996   -2.3651 H   0  0  0  0  0  0  0  0  0  0  0  0
    3.8295    1.7154   -4.5695 S   0  0  0  0  0  0  0  0  0  0  0  0
    3.0919    0.5459   -3.9339 O   0  0  0  0  0  0  0  0  0  0  0  0
    3.5463    1.8629   -6.0074 O   0  0  0  0  0  0  0  0  0  0  0  0
    3.6161    2.9516   -3.7439 O   0  0  0  0  0  0  0  0  0  0  0  0
    9.7147    0.1936   -3.9717 C   0  0  0  0  0  0  0  0  0  0  0  0
    9.7972   -0.7887   -3.4891 H   0  0  0  0  0  0  0  0  0  0  0  0
   10.2191    0.1252   -4.9395 H   0  0  0  0  0  0  0  0  0  0  0  0
   10.2671    0.9053   -3.3500 H   0  0  0  0  0  0  0  0  0  0  0  0
   -1.3917   -0.6516   -0.6840 H   0  0  0  0  0  0  0  0  0  0  0  0
  1  7  1  0  0  0  0
  1  6  2  0  0  0  0
  2  1  1  0  0  0  0
  3  2  2  0  0  0  0
  3  4  1  0  0  0  0
  4  5  2  0  0  0  0
  5  6  1  0  0  0  0
  5 10  1  0  0  0  0
  6 31  1  0  0  0  0
  8  2  1  0  0  0  0
  9  4  1  0  0  0  0
 11  3  1  0  0  0  0
 12 11  1  0  0  0  0
 13 14  2  0  0  0  0
 13 18  1  0  0  0  0
 14 15  1  0  0  0  0
 15 27  1  0  0  0  0
 15 16  2  0  0  0  0
 16 21  1  0  0  0  0
 17 16  1  0  0  0  0
 17 22  1  0  0  0  0
 18 17  2  0  0  0  0
 19 13  1  0  0  0  0
 20 14  1  0  0  0  0
 23 18  1  0  0  0  0
 23 24  2  0  0  0  0
 23 26  1  0  0  0  0
 25 23  2  0  0  0  0
 27 28  1  0  0  0  0
 27 30  1  0  0  0  0
 29 27  1  0  0  0  0
M  RAD  3  11   2  12   3  26   2
M  END
