Coordinates from ORCA-job Ph-N2-X-OTs-B3LYPG-6-31G_dp-scan-d09-49-n400
 OpenBabel08281821093D

 31 31  0  0  0  0  0  0  0  0999 V2000
    1.1810   -0.0094   -2.1442 C   0  0  0  0  0  0  0  0  0  0  0  0
    1.3075    1.0382   -3.0924 C   0  0  0  0  0  0  0  0  0  0  0  0
    0.5847    2.1683   -2.6659 C   0  0  0  0  0  0  0  0  0  0  0  0
   -0.1926    2.3558   -1.4933 C   0  0  0  0  0  0  0  0  0  0  0  0
   -0.2528    1.2785   -0.6354 C   0  0  0  0  0  0  0  0  0  0  0  0
    0.4391    0.0931   -0.9699 C   0  0  0  0  0  0  0  0  0  0  0  0
    1.6890   -0.9524   -2.3417 H   0  0  0  0  0  0  0  0  0  0  0  0
    2.2309    0.9244   -4.6827 H   0  0  0  0  0  0  0  0  0  0  0  0
   -0.7045    3.2911   -1.2867 H   0  0  0  0  0  0  0  0  0  0  0  0
   -0.8247    1.3423    0.2844 H   0  0  0  0  0  0  0  0  0  0  0  0
    0.6364    3.2546   -3.5331 N   0  0  0  0  0  0  0  0  0  0  0  0
    0.7077    4.1001   -4.2577 N   0  0  0  0  0  0  0  0  0  0  0  0
    6.2710    0.9639   -5.6881 C   0  0  0  0  0  0  0  0  0  0  0  0
    7.4265    0.4932   -5.0637 C   0  0  0  0  0  0  0  0  0  0  0  0
    7.5409    0.4748   -3.6678 C   0  0  0  0  0  0  0  0  0  0  0  0
    6.4642    0.9510   -2.9029 C   0  0  0  0  0  0  0  0  0  0  0  0
    5.3053    1.4273   -3.5089 C   0  0  0  0  0  0  0  0  0  0  0  0
    5.2169    1.4269   -4.9031 C   0  0  0  0  0  0  0  0  0  0  0  0
    6.1831    0.9879   -6.7688 H   0  0  0  0  0  0  0  0  0  0  0  0
    8.2539    0.1379   -5.6723 H   0  0  0  0  0  0  0  0  0  0  0  0
    6.5390    0.9536   -1.8182 H   0  0  0  0  0  0  0  0  0  0  0  0
    4.4789    1.8001   -2.9127 H   0  0  0  0  0  0  0  0  0  0  0  0
    3.7331    2.0367   -5.6960 S   0  0  0  0  0  0  0  0  0  0  0  0
    2.6838    0.8467   -5.4913 O   0  0  0  0  0  0  0  0  0  0  0  0
    3.9890    2.1444   -7.1271 O   0  0  0  0  0  0  0  0  0  0  0  0
    3.2660    3.2039   -4.9328 O   0  0  0  0  0  0  0  0  0  0  0  0
    8.7828   -0.0617   -2.9969 C   0  0  0  0  0  0  0  0  0  0  0  0
    8.6380   -1.1006   -2.6758 H   0  0  0  0  0  0  0  0  0  0  0  0
    9.6422   -0.0452   -3.6733 H   0  0  0  0  0  0  0  0  0  0  0  0
    9.0398    0.5188   -2.1056 H   0  0  0  0  0  0  0  0  0  0  0  0
    0.3834   -0.7535   -0.2882 H   0  0  0  0  0  0  0  0  0  0  0  0
  1  6  2  0  0  0  0
  2  3  2  0  0  0  0
  2  1  1  0  0  0  0
  3  4  1  0  0  0  0
  4  9  1  0  0  0  0
  4  5  2  0  0  0  0
  5 10  1  0  0  0  0
  6  5  1  0  0  0  0
  6 31  1  0  0  0  0
  7  1  1  0  0  0  0
 11  3  1  0  0  0  0
 12 11  1  0  0  0  0
 13 14  2  0  0  0  0
 13 18  1  0  0  0  0
 14 15  1  0  0  0  0
 15 27  1  0  0  0  0
 15 16  2  0  0  0  0
 16 21  1  0  0  0  0
 17 22  1  0  0  0  0
 17 16  1  0  0  0  0
 18 17  2  0  0  0  0
 19 13  1  0  0  0  0
 20 14  1  0  0  0  0
 23 24  1  0  0  0  0
 23 26  2  0  0  0  0
 23 18  1  0  0  0  0
 24  8  1  0  0  0  0
 25 23  2  0  0  0  0
 27 28  1  0  0  0  0
 27 30  1  0  0  0  0
 29 27  1  0  0  0  0
M  RAD  3   2   2  11   2  12   3
M  END
