Coordinates from ORCA-job Ph-N2-X-OTs-B3LYPG-6-31G_dp-scan-d09-49-n400
 OpenBabel08281821093D

 31 31  0  0  0  0  0  0  0  0999 V2000
    0.0139    1.4184   -0.6320 C   0  0  0  0  0  0  0  0  0  0  0  0
    1.0301    1.5848   -1.5694 C   0  0  0  0  0  0  0  0  0  0  0  0
    0.6829    2.0552   -2.8422 C   0  0  0  0  0  0  0  0  0  0  0  0
   -0.6340    2.3901   -3.1766 C   0  0  0  0  0  0  0  0  0  0  0  0
   -1.6371    2.1882   -2.2335 C   0  0  0  0  0  0  0  0  0  0  0  0
   -1.3136    1.7049   -0.9628 C   0  0  0  0  0  0  0  0  0  0  0  0
    0.2625    1.0567    0.3604 H   0  0  0  0  0  0  0  0  0  0  0  0
    2.0623    1.3808   -1.3207 H   0  0  0  0  0  0  0  0  0  0  0  0
   -0.8529    2.7802   -4.1643 H   0  0  0  0  0  0  0  0  0  0  0  0
   -2.6665    2.4209   -2.4856 H   0  0  0  0  0  0  0  0  0  0  0  0
    1.6635    2.2991   -3.8288 N   0  0  0  0  0  0  0  0  0  0  0  0
    2.6459    1.8410   -4.2568 N   0  0  0  0  0  0  0  0  0  0  0  0
    5.9210    1.0856   -5.2760 C   0  0  0  0  0  0  0  0  0  0  0  0
    7.2040    1.6216   -5.1709 C   0  0  0  0  0  0  0  0  0  0  0  0
    8.1099    1.1523   -4.2101 C   0  0  0  0  0  0  0  0  0  0  0  0
    7.6962    0.1236   -3.3507 C   0  0  0  0  0  0  0  0  0  0  0  0
    6.4178   -0.4220   -3.4415 C   0  0  0  0  0  0  0  0  0  0  0  0
    5.5332    0.0685   -4.4038 C   0  0  0  0  0  0  0  0  0  0  0  0
    5.2262    1.4381   -6.0302 H   0  0  0  0  0  0  0  0  0  0  0  0
    7.5076    2.4140   -5.8505 H   0  0  0  0  0  0  0  0  0  0  0  0
    8.3873   -0.2584   -2.6032 H   0  0  0  0  0  0  0  0  0  0  0  0
    6.1065   -1.2297   -2.7875 H   0  0  0  0  0  0  0  0  0  0  0  0
    3.8760   -0.6071   -4.5083 S   0  0  0  0  0  0  0  0  0  0  0  0
    3.9236   -1.9832   -4.0058 O   0  0  0  0  0  0  0  0  0  0  0  0
    3.3695   -0.3378   -5.8580 O   0  0  0  0  0  0  0  0  0  0  0  0
    3.0509    0.2589   -3.4479 O   0  0  0  0  0  0  0  0  0  0  0  0
    9.5088    1.7145   -4.1225 C   0  0  0  0  0  0  0  0  0  0  0  0
   10.2165    1.0991   -4.6914 H   0  0  0  0  0  0  0  0  0  0  0  0
    9.5589    2.7286   -4.5287 H   0  0  0  0  0  0  0  0  0  0  0  0
    9.8648    1.7440   -3.0881 H   0  0  0  0  0  0  0  0  0  0  0  0
   -2.0962    1.5601   -0.2245 H   0  0  0  0  0  0  0  0  0  0  0  0
  1  7  1  0  0  0  0
  2  8  1  0  0  0  0
  2  1  2  0  0  0  0
  3  2  1  0  0  0  0
  4  3  2  0  0  0  0
  4  5  1  0  0  0  0
  5  6  2  0  0  0  0
  6  1  1  0  0  0  0
  6 31  1  0  0  0  0
  9  4  1  0  0  0  0
 10  5  1  0  0  0  0
 11  3  1  0  0  0  0
 12 11  2  0  0  0  0
 13 14  2  0  0  0  0
 13 18  1  0  0  0  0
 14 15  1  0  0  0  0
 15 27  1  0  0  0  0
 15 16  2  0  0  0  0
 16 21  1  0  0  0  0
 17 16  1  0  0  0  0
 17 22  1  0  0  0  0
 18 17  2  0  0  0  0
 19 13  1  0  0  0  0
 20 14  1  0  0  0  0
 23 18  1  0  0  0  0
 23 24  2  0  0  0  0
 23 26  1  0  0  0  0
 25 23  2  0  0  0  0
 27 30  1  0  0  0  0
 28 27  1  0  0  0  0
 29 27  1  0  0  0  0
M  RAD  2  12   2  26   2
M  END
