Coordinates from ORCA-job Ph-N2-X-OTs-B3LYPG-6-31G_dp-scan-d09-49-n400
 OpenBabel08281821093D

 31 31  0  0  0  0  0  0  0  0999 V2000
    0.1631    0.1837   -1.4646 C   0  0  0  0  0  0  0  0  0  0  0  0
    0.8187    0.9159   -2.4542 C   0  0  0  0  0  0  0  0  0  0  0  0
    0.2190    2.1286   -2.8278 C   0  0  0  0  0  0  0  0  0  0  0  0
   -0.9795    2.6140   -2.2818 C   0  0  0  0  0  0  0  0  0  0  0  0
   -1.5933    1.8605   -1.2908 C   0  0  0  0  0  0  0  0  0  0  0  0
   -1.0210    0.6474   -0.8857 C   0  0  0  0  0  0  0  0  0  0  0  0
    0.5887   -0.7631   -1.1492 H   0  0  0  0  0  0  0  0  0  0  0  0
    1.7454    0.5519   -2.9377 H   0  0  0  0  0  0  0  0  0  0  0  0
   -1.3943    3.5550   -2.6247 H   0  0  0  0  0  0  0  0  0  0  0  0
   -2.5154    2.2103   -0.8400 H   0  0  0  0  0  0  0  0  0  0  0  0
    0.8254    2.9034   -3.8214 N   0  0  0  0  0  0  0  0  0  0  0  0
    1.6612    3.2798   -4.4889 N   0  0  0  0  0  0  0  0  0  0  0  0
    6.3517    1.3345   -5.4821 C   0  0  0  0  0  0  0  0  0  0  0  0
    7.7381    1.2237   -5.3714 C   0  0  0  0  0  0  0  0  0  0  0  0
    8.3349    0.7207   -4.2083 C   0  0  0  0  0  0  0  0  0  0  0  0
    7.5026    0.3255   -3.1492 C   0  0  0  0  0  0  0  0  0  0  0  0
    6.1176    0.4289   -3.2453 C   0  0  0  0  0  0  0  0  0  0  0  0
    5.5478    0.9373   -4.4148 C   0  0  0  0  0  0  0  0  0  0  0  0
    5.8876    1.7116   -6.3868 H   0  0  0  0  0  0  0  0  0  0  0  0
    8.3659    1.5300   -6.2044 H   0  0  0  0  0  0  0  0  0  0  0  0
    7.9474   -0.0712   -2.2395 H   0  0  0  0  0  0  0  0  0  0  0  0
    5.4762    0.1076   -2.4320 H   0  0  0  0  0  0  0  0  0  0  0  0
    3.7677    1.1157   -4.5398 S   0  0  0  0  0  0  0  0  0  0  0  0
    3.1731   -0.0217   -3.7758 O   0  0  0  0  0  0  0  0  0  0  0  0
    3.4179    1.1847   -5.9696 O   0  0  0  0  0  0  0  0  0  0  0  0
    3.4776    2.4289   -3.8040 O   0  0  0  0  0  0  0  0  0  0  0  0
    9.8346    0.5797   -4.0996 C   0  0  0  0  0  0  0  0  0  0  0  0
   10.1415   -0.4690   -4.1964 H   0  0  0  0  0  0  0  0  0  0  0  0
   10.3487    1.1463   -4.8806 H   0  0  0  0  0  0  0  0  0  0  0  0
   10.2004    0.9326   -3.1295 H   0  0  0  0  0  0  0  0  0  0  0  0
   -1.5100    0.0577   -0.1159 H   0  0  0  0  0  0  0  0  0  0  0  0
  1  7  1  0  0  0  0
  1  6  2  0  0  0  0
  2  1  1  0  0  0  0
  3  2  2  0  0  0  0
  3  4  1  0  0  0  0
  4  5  2  0  0  0  0
  5  6  1  0  0  0  0
  5 10  1  0  0  0  0
  6 31  1  0  0  0  0
  8  2  1  0  0  0  0
  9  4  1  0  0  0  0
 11  3  1  0  0  0  0
 12 11  1  0  0  0  0
 13 14  2  0  0  0  0
 13 18  1  0  0  0  0
 14 15  1  0  0  0  0
 15 27  1  0  0  0  0
 15 16  2  0  0  0  0
 16 21  1  0  0  0  0
 17 16  1  0  0  0  0
 17 22  1  0  0  0  0
 18 17  2  0  0  0  0
 19 13  1  0  0  0  0
 20 14  1  0  0  0  0
 23 18  1  0  0  0  0
 23 26  2  0  0  0  0
 23 24  1  0  0  0  0
 25 23  2  0  0  0  0
 27 30  1  0  0  0  0
 28 27  1  0  0  0  0
 29 27  1  0  0  0  0
M  RAD  3  11   2  12   3  24   2
M  END
