Coordinates from ORCA-job Ph-N2-X-OTs-B3LYPG-6-31G_dp-scan-d09-49-n400
 OpenBabel08281821093D

 31 31  0  0  0  0  0  0  0  0999 V2000
    0.3258   -0.0764   -1.9530 C   0  0  0  0  0  0  0  0  0  0  0  0
    0.9328    0.9423   -2.7004 C   0  0  0  0  0  0  0  0  0  0  0  0
    0.2328    2.1598   -2.6784 C   0  0  0  0  0  0  0  0  0  0  0  0
   -0.9772    2.4176   -2.0015 C   0  0  0  0  0  0  0  0  0  0  0  0
   -1.5234    1.3704   -1.2813 C   0  0  0  0  0  0  0  0  0  0  0  0
   -0.8685    0.1256   -1.2602 C   0  0  0  0  0  0  0  0  0  0  0  0
    0.8049   -1.0510   -1.9204 H   0  0  0  0  0  0  0  0  0  0  0  0
    1.9697    0.7923   -3.3414 H   0  0  0  0  0  0  0  0  0  0  0  0
   -1.4478    3.3942   -2.0465 H   0  0  0  0  0  0  0  0  0  0  0  0
   -2.4529    1.5111   -0.7410 H   0  0  0  0  0  0  0  0  0  0  0  0
    0.7904    3.2059   -3.4048 N   0  0  0  0  0  0  0  0  0  0  0  0
    1.3851    3.9458   -3.9954 N   0  0  0  0  0  0  0  0  0  0  0  0
    6.2399    0.7185   -5.4803 C   0  0  0  0  0  0  0  0  0  0  0  0
    7.5758    0.3569   -5.3086 C   0  0  0  0  0  0  0  0  0  0  0  0
    8.2404    0.5912   -4.0977 C   0  0  0  0  0  0  0  0  0  0  0  0
    7.5315    1.2126   -3.0586 C   0  0  0  0  0  0  0  0  0  0  0  0
    6.1965    1.5778   -3.2150 C   0  0  0  0  0  0  0  0  0  0  0  0
    5.5539    1.3236   -4.4279 C   0  0  0  0  0  0  0  0  0  0  0  0
    5.7294    0.5535   -6.4229 H   0  0  0  0  0  0  0  0  0  0  0  0
    8.1127   -0.1088   -6.1315 H   0  0  0  0  0  0  0  0  0  0  0  0
    8.0353    1.4196   -2.1173 H   0  0  0  0  0  0  0  0  0  0  0  0
    5.6570    2.0762   -2.4167 H   0  0  0  0  0  0  0  0  0  0  0  0
    3.8224    1.7455   -4.6362 S   0  0  0  0  0  0  0  0  0  0  0  0
    3.0631    0.5685   -4.0293 O   0  0  0  0  0  0  0  0  0  0  0  0
    3.5747    1.9005   -6.0790 O   0  0  0  0  0  0  0  0  0  0  0  0
    3.5932    2.9696   -3.8029 O   0  0  0  0  0  0  0  0  0  0  0  0
    9.6792    0.1719   -3.9075 C   0  0  0  0  0  0  0  0  0  0  0  0
    9.7434   -0.8038   -3.4092 H   0  0  0  0  0  0  0  0  0  0  0  0
   10.2005    0.0843   -4.8649 H   0  0  0  0  0  0  0  0  0  0  0  0
   10.2270    0.8878   -3.2865 H   0  0  0  0  0  0  0  0  0  0  0  0
   -1.3082   -0.6921   -0.6958 H   0  0  0  0  0  0  0  0  0  0  0  0
  1  7  1  0  0  0  0
  1  6  2  0  0  0  0
  2  3  2  0  0  0  0
  2  1  1  0  0  0  0
  3  4  1  0  0  0  0
  4  5  2  0  0  0  0
  5  6  1  0  0  0  0
  5 10  1  0  0  0  0
  6 31  1  0  0  0  0
  8  2  1  0  0  0  0
  9  4  1  0  0  0  0
 11  3  1  0  0  0  0
 12 11  1  0  0  0  0
 13 14  2  0  0  0  0
 13 18  1  0  0  0  0
 14 15  1  0  0  0  0
 15 27  1  0  0  0  0
 15 16  2  0  0  0  0
 16 21  1  0  0  0  0
 17 16  1  0  0  0  0
 17 22  1  0  0  0  0
 18 17  2  0  0  0  0
 19 13  1  0  0  0  0
 20 14  1  0  0  0  0
 23 18  1  0  0  0  0
 23 24  2  0  0  0  0
 23 26  1  0  0  0  0
 25 23  2  0  0  0  0
 27 28  1  0  0  0  0
 27 30  1  0  0  0  0
 29 27  1  0  0  0  0
M  RAD  3  11   2  12   3  26   2
M  END
