Coordinates from ORCA-job Ph-N2-X-OTs-B3LYPG-6-31G_dp-scan-d09-49-n400
 OpenBabel08281821093D

 31 31  0  0  0  0  0  0  0  0999 V2000
   -0.5898    0.6313   -1.2151 C   0  0  0  0  0  0  0  0  0  0  0  0
    0.6075    0.9991   -1.8222 C   0  0  0  0  0  0  0  0  0  0  0  0
    0.5937    2.1272   -2.6593 C   0  0  0  0  0  0  0  0  0  0  0  0
   -0.5658    2.8807   -2.8878 C   0  0  0  0  0  0  0  0  0  0  0  0
   -1.7485    2.4900   -2.2704 C   0  0  0  0  0  0  0  0  0  0  0  0
   -1.7584    1.3673   -1.4367 C   0  0  0  0  0  0  0  0  0  0  0  0
   -0.6090   -0.2394   -0.5678 H   0  0  0  0  0  0  0  0  0  0  0  0
    1.5317    0.4532   -1.6801 H   0  0  0  0  0  0  0  0  0  0  0  0
   -0.5226    3.7449   -3.5416 H   0  0  0  0  0  0  0  0  0  0  0  0
   -2.6586    3.0560   -2.4386 H   0  0  0  0  0  0  0  0  0  0  0  0
    1.7536    2.5606   -3.3197 N   0  0  0  0  0  0  0  0  0  0  0  0
    2.8614    2.3426   -3.5586 N   0  0  0  0  0  0  0  0  0  0  0  0
    5.9472    1.0816   -5.1218 C   0  0  0  0  0  0  0  0  0  0  0  0
    7.2600    1.4996   -5.3395 C   0  0  0  0  0  0  0  0  0  0  0  0
    8.2995    1.0952   -4.4918 C   0  0  0  0  0  0  0  0  0  0  0  0
    7.9902    0.2550   -3.4112 C   0  0  0  0  0  0  0  0  0  0  0  0
    6.6845   -0.1714   -3.1809 C   0  0  0  0  0  0  0  0  0  0  0  0
    5.6659    0.2501   -4.0382 C   0  0  0  0  0  0  0  0  0  0  0  0
    5.1456    1.3810   -5.7877 H   0  0  0  0  0  0  0  0  0  0  0  0
    7.4819    2.1454   -6.1857 H   0  0  0  0  0  0  0  0  0  0  0  0
    8.7842   -0.0732   -2.7451 H   0  0  0  0  0  0  0  0  0  0  0  0
    6.4504   -0.8350   -2.3553 H   0  0  0  0  0  0  0  0  0  0  0  0
    3.9782   -0.2736   -3.7319 S   0  0  0  0  0  0  0  0  0  0  0  0
    4.0343   -1.5999   -3.1046 O   0  0  0  0  0  0  0  0  0  0  0  0
    3.2288   -0.0980   -4.9867 O   0  0  0  0  0  0  0  0  0  0  0  0
    3.4480    0.7434   -2.6542 O   0  0  0  0  0  0  0  0  0  0  0  0
    9.7244    1.5233   -4.7523 C   0  0  0  0  0  0  0  0  0  0  0  0
   10.2716    0.7538   -5.3118 H   0  0  0  0  0  0  0  0  0  0  0  0
    9.7641    2.4447   -5.3406 H   0  0  0  0  0  0  0  0  0  0  0  0
   10.2690    1.6919   -3.8183 H   0  0  0  0  0  0  0  0  0  0  0  0
   -2.6835    1.0635   -0.9564 H   0  0  0  0  0  0  0  0  0  0  0  0
  1  7  1  0  0  0  0
  2  8  1  0  0  0  0
  2  1  2  0  0  0  0
  3  2  1  0  0  0  0
  4  3  2  0  0  0  0
  4  5  1  0  0  0  0
  5  6  2  0  0  0  0
  6  1  1  0  0  0  0
  6 31  1  0  0  0  0
  9  4  1  0  0  0  0
 10  5  1  0  0  0  0
 11  3  1  0  0  0  0
 12 11  2  0  0  0  0
 13 18  1  0  0  0  0
 14 13  2  0  0  0  0
 14 15  1  0  0  0  0
 15 16  2  0  0  0  0
 16 17  1  0  0  0  0
 16 21  1  0  0  0  0
 17 22  1  0  0  0  0
 18 23  1  0  0  0  0
 18 17  2  0  0  0  0
 19 13  1  0  0  0  0
 20 14  1  0  0  0  0
 23 24  2  0  0  0  0
 23 26  1  0  0  0  0
 25 23  2  0  0  0  0
 27 15  1  0  0  0  0
 27 30  1  0  0  0  0
 28 27  1  0  0  0  0
 29 27  1  0  0  0  0
M  RAD  2  12   2  26   2
M  END
