Coordinates from ORCA-job Ph-N2-X-OTs-B3LYPG-6-31G_dp-scan-d09-49-n400
 OpenBabel08281821093D

 31 31  0  0  0  0  0  0  0  0999 V2000
   -0.0543    0.2656   -1.3817 C   0  0  0  0  0  0  0  0  0  0  0  0
    0.7407    0.9431   -2.3040 C   0  0  0  0  0  0  0  0  0  0  0  0
    0.2341    2.1495   -2.8114 C   0  0  0  0  0  0  0  0  0  0  0  0
   -1.0127    2.6772   -2.4453 C   0  0  0  0  0  0  0  0  0  0  0  0
   -1.7723    1.9829   -1.5125 C   0  0  0  0  0  0  0  0  0  0  0  0
   -1.2923    0.7786   -0.9844 C   0  0  0  0  0  0  0  0  0  0  0  0
    0.3030   -0.6745   -0.9755 H   0  0  0  0  0  0  0  0  0  0  0  0
    1.6993    0.5427   -2.6325 H   0  0  0  0  0  0  0  0  0  0  0  0
   -1.3555    3.6087   -2.8812 H   0  0  0  0  0  0  0  0  0  0  0  0
   -2.7361    2.3721   -1.2035 H   0  0  0  0  0  0  0  0  0  0  0  0
    0.9712    2.8757   -3.7558 N   0  0  0  0  0  0  0  0  0  0  0  0
    1.9274    3.1438   -4.3157 N   0  0  0  0  0  0  0  0  0  0  0  0
    6.3029    1.3783   -5.3605 C   0  0  0  0  0  0  0  0  0  0  0  0
    7.6967    1.3583   -5.3588 C   0  0  0  0  0  0  0  0  0  0  0  0
    8.4125    0.7741   -4.3043 C   0  0  0  0  0  0  0  0  0  0  0  0
    7.6919    0.2062   -3.2438 C   0  0  0  0  0  0  0  0  0  0  0  0
    6.2985    0.2176   -3.2314 C   0  0  0  0  0  0  0  0  0  0  0  0
    5.6102    0.8081   -4.2921 C   0  0  0  0  0  0  0  0  0  0  0  0
    5.7486    1.8165   -6.1833 H   0  0  0  0  0  0  0  0  0  0  0  0
    8.2380    1.7995   -6.1924 H   0  0  0  0  0  0  0  0  0  0  0  0
    8.2298   -0.2533   -2.4180 H   0  0  0  0  0  0  0  0  0  0  0  0
    5.7419   -0.2351   -2.4182 H   0  0  0  0  0  0  0  0  0  0  0  0
    3.8179    0.8656   -4.2715 S   0  0  0  0  0  0  0  0  0  0  0  0
    3.3565   -0.3204   -3.5068 O   0  0  0  0  0  0  0  0  0  0  0  0
    3.3511    0.9817   -5.6659 O   0  0  0  0  0  0  0  0  0  0  0  0
    3.4990    2.1453   -3.4674 O   0  0  0  0  0  0  0  0  0  0  0  0
    9.9220    0.7266   -4.3262 C   0  0  0  0  0  0  0  0  0  0  0  0
   10.2814   -0.1955   -4.8009 H   0  0  0  0  0  0  0  0  0  0  0  0
   10.3418    1.5657   -4.8890 H   0  0  0  0  0  0  0  0  0  0  0  0
   10.3392    0.7532   -3.3152 H   0  0  0  0  0  0  0  0  0  0  0  0
   -1.8932    0.2333   -0.2627 H   0  0  0  0  0  0  0  0  0  0  0  0
  1  6  1  0  0  0  0
  1  7  1  0  0  0  0
  2  1  2  0  0  0  0
  3  4  2  0  0  0  0
  3  2  1  0  0  0  0
  4  5  1  0  0  0  0
  5 10  1  0  0  0  0
  5  6  2  0  0  0  0
  6 31  1  0  0  0  0
  8  2  1  0  0  0  0
  9  4  1  0  0  0  0
 11  3  1  0  0  0  0
 12 11  2  0  0  0  0
 13 14  2  0  0  0  0
 13 18  1  0  0  0  0
 14 15  1  0  0  0  0
 15 16  2  0  0  0  0
 16 17  1  0  0  0  0
 16 21  1  0  0  0  0
 17 22  1  0  0  0  0
 18 23  1  0  0  0  0
 18 17  2  0  0  0  0
 19 13  1  0  0  0  0
 20 14  1  0  0  0  0
 23 24  2  0  0  0  0
 23 26  1  0  0  0  0
 25 23  2  0  0  0  0
 27 15  1  0  0  0  0
 27 30  1  0  0  0  0
 28 27  1  0  0  0  0
 29 27  1  0  0  0  0
M  RAD  2  12   2  26   2
M  END
