Coordinates from ORCA-job Ph-N2-X-OTs-B3LYPG-6-31G_dp-scan-d09-49-n400
 OpenBabel08281821093D

 31 31  0  0  0  0  0  0  0  0999 V2000
    0.4425   -0.0768   -2.0811 C   0  0  0  0  0  0  0  0  0  0  0  0
    0.9753    0.9778   -2.8440 C   0  0  0  0  0  0  0  0  0  0  0  0
    0.2716    2.1818   -2.6723 C   0  0  0  0  0  0  0  0  0  0  0  0
   -0.8577    2.4067   -1.8509 C   0  0  0  0  0  0  0  0  0  0  0  0
   -1.3224    1.3223   -1.1329 C   0  0  0  0  0  0  0  0  0  0  0  0
   -0.6683    0.0802   -1.2530 C   0  0  0  0  0  0  0  0  0  0  0  0
    0.9182   -1.0524   -2.1454 H   0  0  0  0  0  0  0  0  0  0  0  0
    2.0435    0.8278   -3.6422 H   0  0  0  0  0  0  0  0  0  0  0  0
   -1.3275    3.3832   -1.7917 H   0  0  0  0  0  0  0  0  0  0  0  0
   -2.1860    1.4295   -0.4854 H   0  0  0  0  0  0  0  0  0  0  0  0
    0.7322    3.2718   -3.3997 N   0  0  0  0  0  0  0  0  0  0  0  0
    1.1694    4.1005   -4.0040 N   0  0  0  0  0  0  0  0  0  0  0  0
    6.2247    0.6649   -5.4951 C   0  0  0  0  0  0  0  0  0  0  0  0
    7.5402    0.2831   -5.2357 C   0  0  0  0  0  0  0  0  0  0  0  0
    8.1488    0.5666   -4.0056 C   0  0  0  0  0  0  0  0  0  0  0  0
    7.4040    1.2566   -3.0377 C   0  0  0  0  0  0  0  0  0  0  0  0
    6.0878    1.6428   -3.2818 C   0  0  0  0  0  0  0  0  0  0  0  0
    5.5019    1.3399   -4.5114 C   0  0  0  0  0  0  0  0  0  0  0  0
    5.7617    0.4629   -6.4549 H   0  0  0  0  0  0  0  0  0  0  0  0
    8.1068   -0.2359   -6.0049 H   0  0  0  0  0  0  0  0  0  0  0  0
    7.8642    1.5018   -2.0835 H   0  0  0  0  0  0  0  0  0  0  0  0
    5.5196    2.1939   -2.5403 H   0  0  0  0  0  0  0  0  0  0  0  0
    3.8009    1.8064   -4.8339 S   0  0  0  0  0  0  0  0  0  0  0  0
    2.9841    0.5940   -4.3339 O   0  0  0  0  0  0  0  0  0  0  0  0
    3.6633    1.9942   -6.2844 O   0  0  0  0  0  0  0  0  0  0  0  0
    3.5041    2.9815   -3.9706 O   0  0  0  0  0  0  0  0  0  0  0  0
    9.5662    0.1288   -3.7211 C   0  0  0  0  0  0  0  0  0  0  0  0
    9.5837   -0.8228   -3.1747 H   0  0  0  0  0  0  0  0  0  0  0  0
   10.1339   -0.0151   -4.6448 H   0  0  0  0  0  0  0  0  0  0  0  0
   10.0969    0.8635   -3.1072 H   0  0  0  0  0  0  0  0  0  0  0  0
   -1.0444   -0.7686   -0.6878 H   0  0  0  0  0  0  0  0  0  0  0  0
  1  6  2  0  0  0  0
  2  3  2  0  0  0  0
  2  1  1  0  0  0  0
  3  4  1  0  0  0  0
  4  9  1  0  0  0  0
  4  5  2  0  0  0  0
  5 10  1  0  0  0  0
  6  5  1  0  0  0  0
  6 31  1  0  0  0  0
  7  1  1  0  0  0  0
 11  3  1  0  0  0  0
 12 11  1  0  0  0  0
 13 14  2  0  0  0  0
 13 18  1  0  0  0  0
 14 15  1  0  0  0  0
 15 27  1  0  0  0  0
 15 16  2  0  0  0  0
 16 21  1  0  0  0  0
 17 16  1  0  0  0  0
 17 22  1  0  0  0  0
 18 17  2  0  0  0  0
 19 13  1  0  0  0  0
 20 14  1  0  0  0  0
 23 18  1  0  0  0  0
 23 24  1  0  0  0  0
 23 26  2  0  0  0  0
 24  8  1  0  0  0  0
 25 23  2  0  0  0  0
 27 28  1  0  0  0  0
 27 30  1  0  0  0  0
 29 27  1  0  0  0  0
M  RAD  3   2   2  11   2  12   3
M  END
