Coordinates from ORCA-job Ph-N2-X-OTs-B3LYPG-6-31G_dp-scan-d09-49-n400
 OpenBabel08281821093D

 31 31  0  0  0  0  0  0  0  0999 V2000
   -0.0263    1.3326   -0.6709 C   0  0  0  0  0  0  0  0  0  0  0  0
    0.9930    1.4626   -1.6104 C   0  0  0  0  0  0  0  0  0  0  0  0
    0.6765    2.0309   -2.8519 C   0  0  0  0  0  0  0  0  0  0  0  0
   -0.6114    2.4911   -3.1518 C   0  0  0  0  0  0  0  0  0  0  0  0
   -1.6199    2.3264   -2.2077 C   0  0  0  0  0  0  0  0  0  0  0  0
   -1.3271    1.7495   -0.9687 C   0  0  0  0  0  0  0  0  0  0  0  0
    0.1979    0.8976    0.2975 H   0  0  0  0  0  0  0  0  0  0  0  0
    2.0053    1.1550   -1.3904 H   0  0  0  0  0  0  0  0  0  0  0  0
   -0.8039    2.9487   -4.1157 H   0  0  0  0  0  0  0  0  0  0  0  0
   -2.6279    2.6584   -2.4331 H   0  0  0  0  0  0  0  0  0  0  0  0
    1.6576    2.2387   -3.8426 N   0  0  0  0  0  0  0  0  0  0  0  0
    2.6360    1.7767   -4.2721 N   0  0  0  0  0  0  0  0  0  0  0  0
    5.9136    1.0590   -5.2702 C   0  0  0  0  0  0  0  0  0  0  0  0
    7.1869    1.6202   -5.1772 C   0  0  0  0  0  0  0  0  0  0  0  0
    8.1062    1.1779   -4.2165 C   0  0  0  0  0  0  0  0  0  0  0  0
    7.7162    0.1506   -3.3443 C   0  0  0  0  0  0  0  0  0  0  0  0
    6.4477   -0.4195   -3.4227 C   0  0  0  0  0  0  0  0  0  0  0  0
    5.5491    0.0442   -4.3854 C   0  0  0  0  0  0  0  0  0  0  0  0
    5.2087    1.3900   -6.0248 H   0  0  0  0  0  0  0  0  0  0  0  0
    7.4725    2.4110   -5.8664 H   0  0  0  0  0  0  0  0  0  0  0  0
    8.4185   -0.2106   -2.5969 H   0  0  0  0  0  0  0  0  0  0  0  0
    6.1547   -1.2262   -2.7592 H   0  0  0  0  0  0  0  0  0  0  0  0
    3.9045   -0.6648   -4.4751 S   0  0  0  0  0  0  0  0  0  0  0  0
    3.9816   -2.0311   -3.9490 O   0  0  0  0  0  0  0  0  0  0  0  0
    3.3932   -0.4310   -5.8298 O   0  0  0  0  0  0  0  0  0  0  0  0
    3.0644    0.2035   -3.4320 O   0  0  0  0  0  0  0  0  0  0  0  0
    9.4948    1.7672   -4.1415 C   0  0  0  0  0  0  0  0  0  0  0  0
   10.2161    1.1457   -4.6864 H   0  0  0  0  0  0  0  0  0  0  0  0
    9.5288    2.7679   -4.5809 H   0  0  0  0  0  0  0  0  0  0  0  0
    9.8451    1.8371   -3.1070 H   0  0  0  0  0  0  0  0  0  0  0  0
   -2.1129    1.6320   -0.2289 H   0  0  0  0  0  0  0  0  0  0  0  0
  1  7  1  0  0  0  0
  2  8  1  0  0  0  0
  2  1  2  0  0  0  0
  3  2  1  0  0  0  0
  4  3  2  0  0  0  0
  4  5  1  0  0  0  0
  5  6  2  0  0  0  0
  6  1  1  0  0  0  0
  6 31  1  0  0  0  0
  9  4  1  0  0  0  0
 10  5  1  0  0  0  0
 11  3  1  0  0  0  0
 12 11  2  0  0  0  0
 13 14  2  0  0  0  0
 13 18  1  0  0  0  0
 14 15  1  0  0  0  0
 15 27  1  0  0  0  0
 15 16  2  0  0  0  0
 16 21  1  0  0  0  0
 17 16  1  0  0  0  0
 17 22  1  0  0  0  0
 18 17  2  0  0  0  0
 19 13  1  0  0  0  0
 20 14  1  0  0  0  0
 23 18  1  0  0  0  0
 23 24  2  0  0  0  0
 23 26  1  0  0  0  0
 25 23  2  0  0  0  0
 27 30  1  0  0  0  0
 28 27  1  0  0  0  0
 29 27  1  0  0  0  0
M  RAD  2  12   2  26   2
M  END
