Coordinates from ORCA-job Ph-N2-X-OTs-B3LYPG-6-31G_dp-scan-d09-49-n400
 OpenBabel08281821093D

 31 31  0  0  0  0  0  0  0  0999 V2000
   -0.3012    0.3427   -1.3669 C   0  0  0  0  0  0  0  0  0  0  0  0
    0.6987    1.0084   -2.0705 C   0  0  0  0  0  0  0  0  0  0  0  0
    0.3492    2.2138   -2.7006 C   0  0  0  0  0  0  0  0  0  0  0  0
   -0.9430    2.7544   -2.6460 C   0  0  0  0  0  0  0  0  0  0  0  0
   -1.9169    2.0720   -1.9269 C   0  0  0  0  0  0  0  0  0  0  0  0
   -1.5949    0.8681   -1.2911 C   0  0  0  0  0  0  0  0  0  0  0  0
   -0.0630   -0.5960   -0.8783 H   0  0  0  0  0  0  0  0  0  0  0  0
    1.7072    0.6188   -2.1456 H   0  0  0  0  0  0  0  0  0  0  0  0
   -1.1591    3.6859   -3.1568 H   0  0  0  0  0  0  0  0  0  0  0  0
   -2.9231    2.4728   -1.8654 H   0  0  0  0  0  0  0  0  0  0  0  0
    1.2966    2.9325   -3.4435 N   0  0  0  0  0  0  0  0  0  0  0  0
    2.3730    3.0817   -3.8042 N   0  0  0  0  0  0  0  0  0  0  0  0
    6.1728    1.3603   -5.1940 C   0  0  0  0  0  0  0  0  0  0  0  0
    7.5546    1.4477   -5.3573 C   0  0  0  0  0  0  0  0  0  0  0  0
    8.4321    0.8377   -4.4502 C   0  0  0  0  0  0  0  0  0  0  0  0
    7.8868    0.1318   -3.3681 C   0  0  0  0  0  0  0  0  0  0  0  0
    6.5079    0.0346   -3.1919 C   0  0  0  0  0  0  0  0  0  0  0  0
    5.6563    0.6547   -4.1072 C   0  0  0  0  0  0  0  0  0  0  0  0
    5.4943    1.8199   -5.9044 H   0  0  0  0  0  0  0  0  0  0  0  0
    7.9584    1.9946   -6.2061 H   0  0  0  0  0  0  0  0  0  0  0  0
    8.5512   -0.3507   -2.6555 H   0  0  0  0  0  0  0  0  0  0  0  0
    6.0875   -0.5237   -2.3622 H   0  0  0  0  0  0  0  0  0  0  0  0
    3.8813    0.5700   -3.8657 S   0  0  0  0  0  0  0  0  0  0  0  0
    3.5945   -0.6951   -3.1617 O   0  0  0  0  0  0  0  0  0  0  0  0
    3.2377    0.7915   -5.1757 O   0  0  0  0  0  0  0  0  0  0  0  0
    3.5663    1.7525   -2.9063 O   0  0  0  0  0  0  0  0  0  0  0  0
    9.9275    0.9092   -4.6509 C   0  0  0  0  0  0  0  0  0  0  0  0
   10.2871    0.0607   -5.2473 H   0  0  0  0  0  0  0  0  0  0  0  0
   10.2182    1.8225   -5.1789 H   0  0  0  0  0  0  0  0  0  0  0  0
   10.4614    0.8839   -3.6966 H   0  0  0  0  0  0  0  0  0  0  0  0
   -2.3600    0.3337   -0.7363 H   0  0  0  0  0  0  0  0  0  0  0  0
  1  6  1  0  0  0  0
  1  7  1  0  0  0  0
  2  1  2  0  0  0  0
  3  4  2  0  0  0  0
  3  2  1  0  0  0  0
  4  5  1  0  0  0  0
  5 10  1  0  0  0  0
  5  6  2  0  0  0  0
  6 31  1  0  0  0  0
  8  2  1  0  0  0  0
  9  4  1  0  0  0  0
 11  3  1  0  0  0  0
 12 11  2  0  0  0  0
 13 18  1  0  0  0  0
 14 13  2  0  0  0  0
 14 15  1  0  0  0  0
 15 16  2  0  0  0  0
 16 17  1  0  0  0  0
 16 21  1  0  0  0  0
 17 22  1  0  0  0  0
 18 23  1  0  0  0  0
 18 17  2  0  0  0  0
 19 13  1  0  0  0  0
 20 14  1  0  0  0  0
 23 24  2  0  0  0  0
 23 26  1  0  0  0  0
 25 23  2  0  0  0  0
 27 15  1  0  0  0  0
 27 30  1  0  0  0  0
 28 27  1  0  0  0  0
 29 27  1  0  0  0  0
M  RAD  2  12   2  26   2
M  END
