Coordinates from ORCA-job Ph-N2-X-OTs-B3LYPG-6-31G_dp-scan-d09-49-n400
 OpenBabel08281821093D

 31 31  0  0  0  0  0  0  0  0999 V2000
   -0.5531    0.7219   -1.1266 C   0  0  0  0  0  0  0  0  0  0  0  0
    0.6068    0.9602   -1.8586 C   0  0  0  0  0  0  0  0  0  0  0  0
    0.6151    2.0622   -2.7301 C   0  0  0  0  0  0  0  0  0  0  0  0
   -0.4899    2.9134   -2.8710 C   0  0  0  0  0  0  0  0  0  0  0  0
   -1.6365    2.6527   -2.1291 C   0  0  0  0  0  0  0  0  0  0  0  0
   -1.6663    1.5582   -1.2594 C   0  0  0  0  0  0  0  0  0  0  0  0
   -0.5868   -0.1258   -0.4497 H   0  0  0  0  0  0  0  0  0  0  0  0
    1.4849    0.3320   -1.7845 H   0  0  0  0  0  0  0  0  0  0  0  0
   -0.4333    3.7521   -3.5563 H   0  0  0  0  0  0  0  0  0  0  0  0
   -2.5035    3.2976   -2.2287 H   0  0  0  0  0  0  0  0  0  0  0  0
    1.7343    2.3760   -3.5180 N   0  0  0  0  0  0  0  0  0  0  0  0
    2.7961    2.0416   -3.8377 N   0  0  0  0  0  0  0  0  0  0  0  0
    5.9495    0.9828   -5.2097 C   0  0  0  0  0  0  0  0  0  0  0  0
    7.2391    1.4988   -5.3366 C   0  0  0  0  0  0  0  0  0  0  0  0
    8.2435    1.1754   -4.4146 C   0  0  0  0  0  0  0  0  0  0  0  0
    7.9225    0.3158   -3.3529 C   0  0  0  0  0  0  0  0  0  0  0  0
    6.6396   -0.2077   -3.2124 C   0  0  0  0  0  0  0  0  0  0  0  0
    5.6558    0.1342   -4.1426 C   0  0  0  0  0  0  0  0  0  0  0  0
    5.1769    1.2200   -5.9327 H   0  0  0  0  0  0  0  0  0  0  0  0
    7.4711    2.1585   -6.1691 H   0  0  0  0  0  0  0  0  0  0  0  0
    8.6901    0.0492   -2.6305 H   0  0  0  0  0  0  0  0  0  0  0  0
    6.3980   -0.8859   -2.4011 H   0  0  0  0  0  0  0  0  0  0  0  0
    3.9963   -0.5189   -3.9548 S   0  0  0  0  0  0  0  0  0  0  0  0
    4.1069   -1.8258   -3.2965 O   0  0  0  0  0  0  0  0  0  0  0  0
    3.3303   -0.4134   -5.2603 O   0  0  0  0  0  0  0  0  0  0  0  0
    3.3110    0.4669   -2.9260 O   0  0  0  0  0  0  0  0  0  0  0  0
    9.6470    1.7097   -4.5765 C   0  0  0  0  0  0  0  0  0  0  0  0
   10.2872    0.9849   -5.0952 H   0  0  0  0  0  0  0  0  0  0  0  0
    9.6586    2.6335   -5.1622 H   0  0  0  0  0  0  0  0  0  0  0  0
   10.1111    1.9153   -3.6072 H   0  0  0  0  0  0  0  0  0  0  0  0
   -2.5629    1.3555   -0.6814 H   0  0  0  0  0  0  0  0  0  0  0  0
  1  7  1  0  0  0  0
  2  8  1  0  0  0  0
  2  1  2  0  0  0  0
  3  2  1  0  0  0  0
  4  3  2  0  0  0  0
  4  5  1  0  0  0  0
  5  6  2  0  0  0  0
  6  1  1  0  0  0  0
  6 31  1  0  0  0  0
  9  4  1  0  0  0  0
 10  5  1  0  0  0  0
 11  3  1  0  0  0  0
 12 11  2  0  0  0  0
 13 18  1  0  0  0  0
 14 13  2  0  0  0  0
 14 15  1  0  0  0  0
 15 16  2  0  0  0  0
 16 17  1  0  0  0  0
 16 21  1  0  0  0  0
 17 22  1  0  0  0  0
 18 23  1  0  0  0  0
 18 17  2  0  0  0  0
 19 13  1  0  0  0  0
 20 14  1  0  0  0  0
 23 24  2  0  0  0  0
 23 26  1  0  0  0  0
 25 23  2  0  0  0  0
 27 15  1  0  0  0  0
 27 30  1  0  0  0  0
 28 27  1  0  0  0  0
 29 27  1  0  0  0  0
M  RAD  2  12   2  26   2
M  END
