Coordinates from ORCA-job Ph-N2-X-OTs-B3LYPG-6-31G_dp-scan-d09-49-n400
 OpenBabel08281821093D

 31 31  0  0  0  0  0  0  0  0999 V2000
   -0.4436    0.4095   -1.3968 C   0  0  0  0  0  0  0  0  0  0  0  0
    0.6976    1.0609   -1.8545 C   0  0  0  0  0  0  0  0  0  0  0  0
    0.5163    2.2453   -2.5872 C   0  0  0  0  0  0  0  0  0  0  0  0
   -0.7481    2.7839   -2.8610 C   0  0  0  0  0  0  0  0  0  0  0  0
   -1.8699    2.1105   -2.3921 C   0  0  0  0  0  0  0  0  0  0  0  0
   -1.7156    0.9266   -1.6631 C   0  0  0  0  0  0  0  0  0  0  0  0
   -0.3352   -0.5122   -0.8352 H   0  0  0  0  0  0  0  0  0  0  0  0
    1.6984    0.6893   -1.6714 H   0  0  0  0  0  0  0  0  0  0  0  0
   -0.8304    3.7027   -3.4305 H   0  0  0  0  0  0  0  0  0  0  0  0
   -2.8600    2.5042   -2.5951 H   0  0  0  0  0  0  0  0  0  0  0  0
    1.6210    2.9483   -3.0847 N   0  0  0  0  0  0  0  0  0  0  0  0
    2.7526    3.0234   -3.2475 N   0  0  0  0  0  0  0  0  0  0  0  0
    5.9955    1.2930   -5.0360 C   0  0  0  0  0  0  0  0  0  0  0  0
    7.3411    1.4610   -5.3592 C   0  0  0  0  0  0  0  0  0  0  0  0
    8.3523    0.8960   -4.5694 C   0  0  0  0  0  0  0  0  0  0  0  0
    7.9790    0.1534   -3.4402 C   0  0  0  0  0  0  0  0  0  0  0  0
    6.6381   -0.0246   -3.1050 C   0  0  0  0  0  0  0  0  0  0  0  0
    5.6509    0.5519   -3.9053 C   0  0  0  0  0  0  0  0  0  0  0  0
    5.2125    1.7160   -5.6554 H   0  0  0  0  0  0  0  0  0  0  0  0
    7.6109    2.0352   -6.2424 H   0  0  0  0  0  0  0  0  0  0  0  0
    8.7492   -0.2949   -2.8177 H   0  0  0  0  0  0  0  0  0  0  0  0
    6.3515   -0.6131   -2.2399 H   0  0  0  0  0  0  0  0  0  0  0  0
    3.9246    0.3552   -3.4587 S   0  0  0  0  0  0  0  0  0  0  0  0
    3.7867   -0.9600   -2.8116 O   0  0  0  0  0  0  0  0  0  0  0  0
    3.1198    0.6299   -4.6662 O   0  0  0  0  0  0  0  0  0  0  0  0
    3.6638    1.4611   -2.3917 O   0  0  0  0  0  0  0  0  0  0  0  0
    9.8064    1.0556   -4.9455 C   0  0  0  0  0  0  0  0  0  0  0  0
   10.1077    0.3037   -5.6859 H   0  0  0  0  0  0  0  0  0  0  0  0
   10.0010    2.0386   -5.3858 H   0  0  0  0  0  0  0  0  0  0  0  0
   10.4600    0.9381   -4.0763 H   0  0  0  0  0  0  0  0  0  0  0  0
   -2.5944    0.4023   -1.3007 H   0  0  0  0  0  0  0  0  0  0  0  0
  1  7  1  0  0  0  0
  2  8  1  0  0  0  0
  2  1  2  0  0  0  0
  3  2  1  0  0  0  0
  4  3  2  0  0  0  0
  4  5  1  0  0  0  0
  5  6  2  0  0  0  0
  6  1  1  0  0  0  0
  6 31  1  0  0  0  0
  9  4  1  0  0  0  0
 10  5  1  0  0  0  0
 11  3  1  0  0  0  0
 12 11  2  0  0  0  0
 13 18  1  0  0  0  0
 14 13  2  0  0  0  0
 14 15  1  0  0  0  0
 15 16  2  0  0  0  0
 16 17  1  0  0  0  0
 16 21  1  0  0  0  0
 17 22  1  0  0  0  0
 18 23  1  0  0  0  0
 18 17  2  0  0  0  0
 19 13  1  0  0  0  0
 20 14  1  0  0  0  0
 23 24  2  0  0  0  0
 23 26  1  0  0  0  0
 25 23  2  0  0  0  0
 27 15  1  0  0  0  0
 27 30  1  0  0  0  0
 28 27  1  0  0  0  0
 29 27  1  0  0  0  0
M  RAD  2  12   2  26   2
M  END
