Coordinates from ORCA-job Ph-N2-X-OTs-B3LYPG-6-31G_dp-scan-d09-49-n400
 OpenBabel08281821093D

 31 31  0  0  0  0  0  0  0  0999 V2000
   -0.2094    1.0131   -0.8591 C   0  0  0  0  0  0  0  0  0  0  0  0
    0.8143    1.0532   -1.8017 C   0  0  0  0  0  0  0  0  0  0  0  0
    0.6930    1.9590   -2.8678 C   0  0  0  0  0  0  0  0  0  0  0  0
   -0.4102    2.8155   -2.9910 C   0  0  0  0  0  0  0  0  0  0  0  0
   -1.4261    2.7488   -2.0438 C   0  0  0  0  0  0  0  0  0  0  0  0
   -1.3241    1.8486   -0.9792 C   0  0  0  0  0  0  0  0  0  0  0  0
   -0.1355    0.3207   -0.0263 H   0  0  0  0  0  0  0  0  0  0  0  0
    1.6842    0.4167   -1.7297 H   0  0  0  0  0  0  0  0  0  0  0  0
   -0.4554    3.5060   -3.8262 H   0  0  0  0  0  0  0  0  0  0  0  0
   -2.2915    3.3975   -2.1323 H   0  0  0  0  0  0  0  0  0  0  0  0
    1.6743    2.0881   -3.8652 N   0  0  0  0  0  0  0  0  0  0  0  0
    2.6269    1.5925   -4.3145 N   0  0  0  0  0  0  0  0  0  0  0  0
    5.9124    0.9119   -5.3239 C   0  0  0  0  0  0  0  0  0  0  0  0
    7.1497    1.5531   -5.2620 C   0  0  0  0  0  0  0  0  0  0  0  0
    8.0616    1.2719   -4.2358 C   0  0  0  0  0  0  0  0  0  0  0  0
    7.7021    0.3251   -3.2643 C   0  0  0  0  0  0  0  0  0  0  0  0
    6.4707   -0.3237   -3.3118 C   0  0  0  0  0  0  0  0  0  0  0  0
    5.5780   -0.0209   -4.3423 C   0  0  0  0  0  0  0  0  0  0  0  0
    5.2132    1.1162   -6.1271 H   0  0  0  0  0  0  0  0  0  0  0  0
    7.4142    2.2788   -6.0270 H   0  0  0  0  0  0  0  0  0  0  0  0
    8.3999    0.0901   -2.4643 H   0  0  0  0  0  0  0  0  0  0  0  0
    6.2020   -1.0698   -2.5717 H   0  0  0  0  0  0  0  0  0  0  0  0
    3.9832   -0.8392   -4.3982 S   0  0  0  0  0  0  0  0  0  0  0  0
    4.1394   -2.1543   -3.7683 O   0  0  0  0  0  0  0  0  0  0  0  0
    3.4810   -0.7383   -5.7719 O   0  0  0  0  0  0  0  0  0  0  0  0
    3.0749    0.0404   -3.4282 O   0  0  0  0  0  0  0  0  0  0  0  0
    9.4136    1.9442   -4.1924 C   0  0  0  0  0  0  0  0  0  0  0  0
   10.1859    1.3039   -4.6364 H   0  0  0  0  0  0  0  0  0  0  0  0
    9.4106    2.8858   -4.7483 H   0  0  0  0  0  0  0  0  0  0  0  0
    9.7222    2.1564   -3.1642 H   0  0  0  0  0  0  0  0  0  0  0  0
   -2.1158    1.7998   -0.2372 H   0  0  0  0  0  0  0  0  0  0  0  0
  1  7  1  0  0  0  0
  2  8  1  0  0  0  0
  2  1  2  0  0  0  0
  3  2  1  0  0  0  0
  4  3  2  0  0  0  0
  4  5  1  0  0  0  0
  5  6  2  0  0  0  0
  6  1  1  0  0  0  0
  6 31  1  0  0  0  0
  9  4  1  0  0  0  0
 10  5  1  0  0  0  0
 11  3  1  0  0  0  0
 12 11  2  0  0  0  0
 13 14  2  0  0  0  0
 13 18  1  0  0  0  0
 14 15  1  0  0  0  0
 15 27  1  0  0  0  0
 15 16  2  0  0  0  0
 16 21  1  0  0  0  0
 17 16  1  0  0  0  0
 17 22  1  0  0  0  0
 18 17  2  0  0  0  0
 19 13  1  0  0  0  0
 20 14  1  0  0  0  0
 23 18  1  0  0  0  0
 23 24  2  0  0  0  0
 23 26  1  0  0  0  0
 25 23  2  0  0  0  0
 27 30  1  0  0  0  0
 28 27  1  0  0  0  0
 29 27  1  0  0  0  0
M  RAD  2  12   2  26   2
M  END
