Coordinates from ORCA-job Ph-N2-X-OTs-B3LYPG-6-31G_dp-scan-d09-49-n400
 OpenBabel08281821093D

 31 31  0  0  0  0  0  0  0  0999 V2000
   -0.3636    0.3614   -1.4130 C   0  0  0  0  0  0  0  0  0  0  0  0
    0.7289    1.0736   -1.8984 C   0  0  0  0  0  0  0  0  0  0  0  0
    0.4649    2.2619   -2.5988 C   0  0  0  0  0  0  0  0  0  0  0  0
   -0.8326    2.7457   -2.8154 C   0  0  0  0  0  0  0  0  0  0  0  0
   -1.9035    2.0133   -2.3177 C   0  0  0  0  0  0  0  0  0  0  0  0
   -1.6671    0.8240   -1.6196 C   0  0  0  0  0  0  0  0  0  0  0  0
   -0.1910   -0.5653   -0.8764 H   0  0  0  0  0  0  0  0  0  0  0  0
    1.7496    0.7384   -1.7581 H   0  0  0  0  0  0  0  0  0  0  0  0
   -0.9785    3.6694   -3.3638 H   0  0  0  0  0  0  0  0  0  0  0  0
   -2.9177    2.3647   -2.4749 H   0  0  0  0  0  0  0  0  0  0  0  0
    1.5155    3.0238   -3.1250 N   0  0  0  0  0  0  0  0  0  0  0  0
    2.6316    3.1770   -3.3251 N   0  0  0  0  0  0  0  0  0  0  0  0
    6.0467    1.3473   -5.0627 C   0  0  0  0  0  0  0  0  0  0  0  0
    7.4037    1.4439   -5.3664 C   0  0  0  0  0  0  0  0  0  0  0  0
    8.3734    0.8394   -4.5539 C   0  0  0  0  0  0  0  0  0  0  0  0
    7.9465    0.1305   -3.4222 C   0  0  0  0  0  0  0  0  0  0  0  0
    6.5933    0.0238   -3.1061 C   0  0  0  0  0  0  0  0  0  0  0  0
    5.6486    0.6384   -3.9289 C   0  0  0  0  0  0  0  0  0  0  0  0
    5.2954    1.8011   -5.6994 H   0  0  0  0  0  0  0  0  0  0  0  0
    7.7154    1.9929   -6.2518 H   0  0  0  0  0  0  0  0  0  0  0  0
    8.6839   -0.3472   -2.7821 H   0  0  0  0  0  0  0  0  0  0  0  0
    6.2640   -0.5381   -2.2386 H   0  0  0  0  0  0  0  0  0  0  0  0
    3.9081    0.5374   -3.5070 S   0  0  0  0  0  0  0  0  0  0  0  0
    3.6972   -0.7523   -2.8246 O   0  0  0  0  0  0  0  0  0  0  0  0
    3.1344    0.8055   -4.7368 O   0  0  0  0  0  0  0  0  0  0  0  0
    3.6830    1.6846   -2.4810 O   0  0  0  0  0  0  0  0  0  0  0  0
    9.8392    0.9226   -4.9086 C   0  0  0  0  0  0  0  0  0  0  0  0
   10.1156    0.1445   -5.6316 H   0  0  0  0  0  0  0  0  0  0  0  0
   10.0880    1.8874   -5.3617 H   0  0  0  0  0  0  0  0  0  0  0  0
   10.4728    0.7889   -4.0270 H   0  0  0  0  0  0  0  0  0  0  0  0
   -2.5063    0.2524   -1.2355 H   0  0  0  0  0  0  0  0  0  0  0  0
  1  7  1  0  0  0  0
  2  8  1  0  0  0  0
  2  1  2  0  0  0  0
  3  2  1  0  0  0  0
  4  3  2  0  0  0  0
  4  5  1  0  0  0  0
  5  6  2  0  0  0  0
  6  1  1  0  0  0  0
  6 31  1  0  0  0  0
  9  4  1  0  0  0  0
 10  5  1  0  0  0  0
 11  3  1  0  0  0  0
 12 11  2  0  0  0  0
 13 18  1  0  0  0  0
 14 13  2  0  0  0  0
 14 15  1  0  0  0  0
 15 16  2  0  0  0  0
 16 17  1  0  0  0  0
 16 21  1  0  0  0  0
 17 22  1  0  0  0  0
 18 23  1  0  0  0  0
 18 17  2  0  0  0  0
 19 13  1  0  0  0  0
 20 14  1  0  0  0  0
 23 24  2  0  0  0  0
 23 26  1  0  0  0  0
 25 23  2  0  0  0  0
 27 15  1  0  0  0  0
 27 30  1  0  0  0  0
 28 27  1  0  0  0  0
 29 27  1  0  0  0  0
M  RAD  2  12   2  26   2
M  END
