Coordinates from ORCA-job Ph-N2-X-OTs-B3LYPG-6-31G_dp-scan-d09-49-n400
 OpenBabel08281821093D

 31 31  0  0  0  0  0  0  0  0999 V2000
   -0.2682    0.3310   -1.3672 C   0  0  0  0  0  0  0  0  0  0  0  0
    0.7092    1.0094   -2.0905 C   0  0  0  0  0  0  0  0  0  0  0  0
    0.3320    2.2121   -2.7093 C   0  0  0  0  0  0  0  0  0  0  0  0
   -0.9648    2.7379   -2.6261 C   0  0  0  0  0  0  0  0  0  0  0  0
   -1.9150    2.0432   -1.8874 C   0  0  0  0  0  0  0  0  0  0  0  0
   -1.5656    0.8416   -1.2618 C   0  0  0  0  0  0  0  0  0  0  0  0
   -0.0087   -0.6062   -0.8867 H   0  0  0  0  0  0  0  0  0  0  0  0
    1.7191    0.6275   -2.1874 H   0  0  0  0  0  0  0  0  0  0  0  0
   -1.2026    3.6679   -3.1300 H   0  0  0  0  0  0  0  0  0  0  0  0
   -2.9240    2.4325   -1.8030 H   0  0  0  0  0  0  0  0  0  0  0  0
    1.2548    2.9425   -3.4710 N   0  0  0  0  0  0  0  0  0  0  0  0
    2.3193    3.1165   -3.8530 N   0  0  0  0  0  0  0  0  0  0  0  0
    6.1920    1.3692   -5.2137 C   0  0  0  0  0  0  0  0  0  0  0  0
    7.5768    1.4343   -5.3619 C   0  0  0  0  0  0  0  0  0  0  0  0
    8.4347    0.8218   -4.4380 C   0  0  0  0  0  0  0  0  0  0  0  0
    7.8666    0.1363   -3.3544 C   0  0  0  0  0  0  0  0  0  0  0  0
    6.4845    0.0614   -3.1932 C   0  0  0  0  0  0  0  0  0  0  0  0
    5.6527    0.6835   -4.1252 C   0  0  0  0  0  0  0  0  0  0  0  0
    5.5285    1.8307   -5.9369 H   0  0  0  0  0  0  0  0  0  0  0  0
    7.9983    1.9654   -6.2121 H   0  0  0  0  0  0  0  0  0  0  0  0
    8.5155   -0.3477   -2.6287 H   0  0  0  0  0  0  0  0  0  0  0  0
    6.0465   -0.4812   -2.3623 H   0  0  0  0  0  0  0  0  0  0  0  0
    3.8740    0.6283   -3.9031 S   0  0  0  0  0  0  0  0  0  0  0  0
    3.5613   -0.6268   -3.1901 O   0  0  0  0  0  0  0  0  0  0  0  0
    3.2476    0.8424   -5.2228 O   0  0  0  0  0  0  0  0  0  0  0  0
    3.5677    1.8251   -2.9610 O   0  0  0  0  0  0  0  0  0  0  0  0
    9.9332    0.8689   -4.6219 C   0  0  0  0  0  0  0  0  0  0  0  0
   10.2885    0.0024   -5.1946 H   0  0  0  0  0  0  0  0  0  0  0  0
   10.2426    1.7662   -5.1663 H   0  0  0  0  0  0  0  0  0  0  0  0
   10.4554    0.8576   -3.6607 H   0  0  0  0  0  0  0  0  0  0  0  0
   -2.3124    0.2972   -0.6918 H   0  0  0  0  0  0  0  0  0  0  0  0
  1  6  1  0  0  0  0
  1  7  1  0  0  0  0
  2  1  2  0  0  0  0
  3  4  2  0  0  0  0
  3  2  1  0  0  0  0
  4  5  1  0  0  0  0
  5 10  1  0  0  0  0
  5  6  2  0  0  0  0
  6 31  1  0  0  0  0
  8  2  1  0  0  0  0
  9  4  1  0  0  0  0
 11  3  1  0  0  0  0
 12 11  2  0  0  0  0
 13 18  1  0  0  0  0
 14 13  2  0  0  0  0
 14 15  1  0  0  0  0
 15 16  2  0  0  0  0
 16 17  1  0  0  0  0
 16 21  1  0  0  0  0
 17 22  1  0  0  0  0
 18 23  1  0  0  0  0
 18 17  2  0  0  0  0
 19 13  1  0  0  0  0
 20 14  1  0  0  0  0
 23 24  2  0  0  0  0
 23 26  1  0  0  0  0
 25 23  2  0  0  0  0
 27 15  1  0  0  0  0
 27 30  1  0  0  0  0
 28 27  1  0  0  0  0
 29 27  1  0  0  0  0
M  RAD  2  12   2  26   2
M  END
