Coordinates from ORCA-job Ph-N2-X-OTs-B3LYPG-6-31G_dp-scan-d09-49-n400
 OpenBabel08281821093D

 31 31  0  0  0  0  0  0  0  0999 V2000
    0.4622   -0.0731   -2.1026 C   0  0  0  0  0  0  0  0  0  0  0  0
    0.9813    0.9891   -2.8682 C   0  0  0  0  0  0  0  0  0  0  0  0
    0.2767    2.1877   -2.6631 C   0  0  0  0  0  0  0  0  0  0  0  0
   -0.8348    2.4051   -1.8137 C   0  0  0  0  0  0  0  0  0  0  0  0
   -1.2825    1.3128   -1.0981 C   0  0  0  0  0  0  0  0  0  0  0  0
   -0.6295    0.0726   -1.2481 C   0  0  0  0  0  0  0  0  0  0  0  0
    0.9350   -1.0490   -2.1861 H   0  0  0  0  0  0  0  0  0  0  0  0
    2.0794    0.8316   -3.7178 H   0  0  0  0  0  0  0  0  0  0  0  0
   -1.3035    3.3807   -1.7331 H   0  0  0  0  0  0  0  0  0  0  0  0
   -2.1311    1.4115   -0.4296 H   0  0  0  0  0  0  0  0  0  0  0  0
    0.7158    3.2885   -3.3877 N   0  0  0  0  0  0  0  0  0  0  0  0
    1.1190    4.1364   -3.9886 N   0  0  0  0  0  0  0  0  0  0  0  0
    6.2259    0.6578   -5.5043 C   0  0  0  0  0  0  0  0  0  0  0  0
    7.5362    0.2723   -5.2246 C   0  0  0  0  0  0  0  0  0  0  0  0
    8.1296    0.5617   -3.9884 C   0  0  0  0  0  0  0  0  0  0  0  0
    7.3750    1.2612   -3.0349 C   0  0  0  0  0  0  0  0  0  0  0  0
    6.0638    1.6512   -3.2988 C   0  0  0  0  0  0  0  0  0  0  0  0
    5.4936    1.3423   -4.5344 C   0  0  0  0  0  0  0  0  0  0  0  0
    5.7752    0.4510   -6.4688 H   0  0  0  0  0  0  0  0  0  0  0  0
    8.1107   -0.2543   -5.9826 H   0  0  0  0  0  0  0  0  0  0  0  0
    7.8233    1.5106   -2.0763 H   0  0  0  0  0  0  0  0  0  0  0  0
    5.4878    2.2089   -2.5685 H   0  0  0  0  0  0  0  0  0  0  0  0
    3.8010    1.8176   -4.8827 S   0  0  0  0  0  0  0  0  0  0  0  0
    2.9743    0.5944   -4.4010 O   0  0  0  0  0  0  0  0  0  0  0  0
    3.6840    2.0022   -6.3341 O   0  0  0  0  0  0  0  0  0  0  0  0
    3.4866    2.9834   -4.0181 O   0  0  0  0  0  0  0  0  0  0  0  0
    9.5414    0.1206   -3.6820 C   0  0  0  0  0  0  0  0  0  0  0  0
    9.5473   -0.8208   -3.1181 H   0  0  0  0  0  0  0  0  0  0  0  0
   10.1172   -0.0435   -4.5973 H   0  0  0  0  0  0  0  0  0  0  0  0
   10.0705    0.8634   -3.0765 H   0  0  0  0  0  0  0  0  0  0  0  0
   -0.9919   -0.7830   -0.6840 H   0  0  0  0  0  0  0  0  0  0  0  0
  1  6  2  0  0  0  0
  2  3  2  0  0  0  0
  2  1  1  0  0  0  0
  3  4  1  0  0  0  0
  4  9  1  0  0  0  0
  4  5  2  0  0  0  0
  5 10  1  0  0  0  0
  6  5  1  0  0  0  0
  6 31  1  0  0  0  0
  7  1  1  0  0  0  0
 11  3  1  0  0  0  0
 12 11  1  0  0  0  0
 13 14  2  0  0  0  0
 13 18  1  0  0  0  0
 14 15  1  0  0  0  0
 15 27  1  0  0  0  0
 15 16  2  0  0  0  0
 16 21  1  0  0  0  0
 17 16  1  0  0  0  0
 17 22  1  0  0  0  0
 18 17  2  0  0  0  0
 19 13  1  0  0  0  0
 20 14  1  0  0  0  0
 23 18  1  0  0  0  0
 23 24  1  0  0  0  0
 23 26  2  0  0  0  0
 24  8  1  0  0  0  0
 25 23  2  0  0  0  0
 27 28  1  0  0  0  0
 27 30  1  0  0  0  0
 29 27  1  0  0  0  0
M  RAD  3   2   2  11   2  12   3
M  END
