Coordinates from ORCA-job Ph-N2-X-OTs-B3LYPG-6-31G_dp-scan-d09-49-n400
 OpenBabel08281821093D

 31 31  0  0  0  0  0  0  0  0999 V2000
   -0.4001    0.8111   -1.0518 C   0  0  0  0  0  0  0  0  0  0  0  0
    0.6571    0.8770   -1.9550 C   0  0  0  0  0  0  0  0  0  0  0  0
    0.6920    1.9608   -2.8488 C   0  0  0  0  0  0  0  0  0  0  0  0
   -0.2944    2.9577   -2.8448 C   0  0  0  0  0  0  0  0  0  0  0  0
   -1.3394    2.8707   -1.9320 C   0  0  0  0  0  0  0  0  0  0  0  0
   -1.3911    1.7976   -1.0376 C   0  0  0  0  0  0  0  0  0  0  0  0
   -0.4490   -0.0193   -0.3543 H   0  0  0  0  0  0  0  0  0  0  0  0
    1.4361    0.1276   -1.9896 H   0  0  0  0  0  0  0  0  0  0  0  0
   -0.2250    3.7754   -3.5540 H   0  0  0  0  0  0  0  0  0  0  0  0
   -2.1108    3.6342   -1.9180 H   0  0  0  0  0  0  0  0  0  0  0  0
    1.7068    2.1208   -3.8077 N   0  0  0  0  0  0  0  0  0  0  0  0
    2.6736    1.6351   -4.2382 N   0  0  0  0  0  0  0  0  0  0  0  0
    5.9347    0.8300   -5.3405 C   0  0  0  0  0  0  0  0  0  0  0  0
    7.1712    1.4754   -5.3358 C   0  0  0  0  0  0  0  0  0  0  0  0
    8.0816    1.2913   -4.2865 C   0  0  0  0  0  0  0  0  0  0  0  0
    7.7211    0.4379   -3.2323 C   0  0  0  0  0  0  0  0  0  0  0  0
    6.4908   -0.2146   -3.2222 C   0  0  0  0  0  0  0  0  0  0  0  0
    5.6000   -0.0095   -4.2782 C   0  0  0  0  0  0  0  0  0  0  0  0
    5.2361    0.9603   -6.1596 H   0  0  0  0  0  0  0  0  0  0  0  0
    7.4361    2.1276   -6.1642 H   0  0  0  0  0  0  0  0  0  0  0  0
    8.4168    0.2786   -2.4120 H   0  0  0  0  0  0  0  0  0  0  0  0
    6.2216   -0.8879   -2.4157 H   0  0  0  0  0  0  0  0  0  0  0  0
    4.0076   -0.8326   -4.2625 S   0  0  0  0  0  0  0  0  0  0  0  0
    4.1695   -2.1033   -3.5488 O   0  0  0  0  0  0  0  0  0  0  0  0
    3.4863   -0.8177   -5.6328 O   0  0  0  0  0  0  0  0  0  0  0  0
    3.1105    0.0968   -3.3326 O   0  0  0  0  0  0  0  0  0  0  0  0
    9.4327    1.9664   -4.3032 C   0  0  0  0  0  0  0  0  0  0  0  0
   10.2025    1.2961   -4.7056 H   0  0  0  0  0  0  0  0  0  0  0  0
    9.4240    2.8653   -4.9261 H   0  0  0  0  0  0  0  0  0  0  0  0
    9.7491    2.2531   -3.2959 H   0  0  0  0  0  0  0  0  0  0  0  0
   -2.2085    1.7290   -0.3255 H   0  0  0  0  0  0  0  0  0  0  0  0
  1  6  1  0  0  0  0
  1  7  1  0  0  0  0
  2  1  2  0  0  0  0
  3  4  2  0  0  0  0
  3  2  1  0  0  0  0
  4  5  1  0  0  0  0
  5 10  1  0  0  0  0
  5  6  2  0  0  0  0
  6 31  1  0  0  0  0
  8  2  1  0  0  0  0
  9  4  1  0  0  0  0
 11  3  1  0  0  0  0
 12 11  2  0  0  0  0
 13 14  2  0  0  0  0
 13 18  1  0  0  0  0
 14 15  1  0  0  0  0
 15 16  2  0  0  0  0
 16 17  1  0  0  0  0
 16 21  1  0  0  0  0
 17 22  1  0  0  0  0
 18 23  1  0  0  0  0
 18 17  2  0  0  0  0
 19 13  1  0  0  0  0
 20 14  1  0  0  0  0
 23 24  2  0  0  0  0
 23 26  1  0  0  0  0
 25 23  2  0  0  0  0
 27 15  1  0  0  0  0
 27 30  1  0  0  0  0
 28 27  1  0  0  0  0
 29 27  1  0  0  0  0
M  RAD  2  12   2  26   2
M  END
