Coordinates from ORCA-job Ph-N2-X-OTs-B3LYPG-6-31G_dp-scan-d09-49-n400
 OpenBabel08281821093D

 31 31  0  0  0  0  0  0  0  0999 V2000
   -0.4400    0.4073   -1.3974 C   0  0  0  0  0  0  0  0  0  0  0  0
    0.6990    1.0616   -1.8563 C   0  0  0  0  0  0  0  0  0  0  0  0
    0.5138    2.2462   -2.5877 C   0  0  0  0  0  0  0  0  0  0  0  0
   -0.7522    2.7821   -2.8593 C   0  0  0  0  0  0  0  0  0  0  0  0
   -1.8717    2.1059   -2.3891 C   0  0  0  0  0  0  0  0  0  0  0  0
   -1.7136    0.9217   -1.6612 C   0  0  0  0  0  0  0  0  0  0  0  0
   -0.3287   -0.5146   -0.8367 H   0  0  0  0  0  0  0  0  0  0  0  0
    1.7008    0.6919   -1.6750 H   0  0  0  0  0  0  0  0  0  0  0  0
   -0.8375    3.7011   -3.4280 H   0  0  0  0  0  0  0  0  0  0  0  0
   -2.8631    2.4974   -2.5903 H   0  0  0  0  0  0  0  0  0  0  0  0
    1.6161    2.9521   -3.0865 N   0  0  0  0  0  0  0  0  0  0  0  0
    2.7472    3.0308   -3.2507 N   0  0  0  0  0  0  0  0  0  0  0  0
    5.9978    1.2957   -5.0370 C   0  0  0  0  0  0  0  0  0  0  0  0
    7.3440    1.4604   -5.3595 C   0  0  0  0  0  0  0  0  0  0  0  0
    8.3534    0.8933   -4.5689 C   0  0  0  0  0  0  0  0  0  0  0  0
    7.9778    0.1521   -3.4395 C   0  0  0  0  0  0  0  0  0  0  0  0
    6.6362   -0.0225   -3.1050 C   0  0  0  0  0  0  0  0  0  0  0  0
    5.6508    0.5560   -3.9061 C   0  0  0  0  0  0  0  0  0  0  0  0
    5.2162    1.7203   -5.6570 H   0  0  0  0  0  0  0  0  0  0  0  0
    7.6157    2.0335   -6.2428 H   0  0  0  0  0  0  0  0  0  0  0  0
    8.7465   -0.2977   -2.8164 H   0  0  0  0  0  0  0  0  0  0  0  0
    6.3477   -0.6099   -2.2397 H   0  0  0  0  0  0  0  0  0  0  0  0
    3.9238    0.3637   -3.4604 S   0  0  0  0  0  0  0  0  0  0  0  0
    3.7825   -0.9504   -2.8117 O   0  0  0  0  0  0  0  0  0  0  0  0
    3.1203    0.6383   -4.6688 O   0  0  0  0  0  0  0  0  0  0  0  0
    3.6648    1.4715   -2.3951 O   0  0  0  0  0  0  0  0  0  0  0  0
    9.8081    1.0493   -4.9442 C   0  0  0  0  0  0  0  0  0  0  0  0
   10.1080    0.2966   -5.6843 H   0  0  0  0  0  0  0  0  0  0  0  0
   10.0053    2.0317   -5.3847 H   0  0  0  0  0  0  0  0  0  0  0  0
   10.4610    0.9305   -4.0746 H   0  0  0  0  0  0  0  0  0  0  0  0
   -2.5907    0.3951   -1.2980 H   0  0  0  0  0  0  0  0  0  0  0  0
  1  7  1  0  0  0  0
  2  8  1  0  0  0  0
  2  1  2  0  0  0  0
  3  2  1  0  0  0  0
  4  3  2  0  0  0  0
  4  5  1  0  0  0  0
  5  6  2  0  0  0  0
  6  1  1  0  0  0  0
  6 31  1  0  0  0  0
  9  4  1  0  0  0  0
 10  5  1  0  0  0  0
 11  3  1  0  0  0  0
 12 11  2  0  0  0  0
 13 18  1  0  0  0  0
 14 13  2  0  0  0  0
 14 15  1  0  0  0  0
 15 16  2  0  0  0  0
 16 17  1  0  0  0  0
 16 21  1  0  0  0  0
 17 22  1  0  0  0  0
 18 23  1  0  0  0  0
 18 17  2  0  0  0  0
 19 13  1  0  0  0  0
 20 14  1  0  0  0  0
 23 24  2  0  0  0  0
 23 26  1  0  0  0  0
 25 23  2  0  0  0  0
 27 15  1  0  0  0  0
 27 30  1  0  0  0  0
 28 27  1  0  0  0  0
 29 27  1  0  0  0  0
M  RAD  2  12   2  26   2
M  END
