Coordinates from ORCA-job Ph-N2-X-OTs-B3LYPG-6-31G_dp-scan-d09-49-n400
 OpenBabel08281821093D

 31 31  0  0  0  0  0  0  0  0999 V2000
   -0.1778    1.0613   -0.8246 C   0  0  0  0  0  0  0  0  0  0  0  0
    0.8443    1.1099   -1.7687 C   0  0  0  0  0  0  0  0  0  0  0  0
    0.6849    1.9676   -2.8686 C   0  0  0  0  0  0  0  0  0  0  0  0
   -0.4531    2.7715   -3.0234 C   0  0  0  0  0  0  0  0  0  0  0  0
   -1.4675    2.6949   -2.0753 C   0  0  0  0  0  0  0  0  0  0  0  0
   -1.3283    1.8411   -0.9773 C   0  0  0  0  0  0  0  0  0  0  0  0
   -0.0747    0.4060    0.0345 H   0  0  0  0  0  0  0  0  0  0  0  0
    1.7415    0.5163   -1.6708 H   0  0  0  0  0  0  0  0  0  0  0  0
   -0.5262    3.4284   -3.8833 H   0  0  0  0  0  0  0  0  0  0  0  0
   -2.3603    3.3012   -2.1886 H   0  0  0  0  0  0  0  0  0  0  0  0
    1.6645    2.1028   -3.8674 N   0  0  0  0  0  0  0  0  0  0  0  0
    2.6217    1.6136   -4.3133 N   0  0  0  0  0  0  0  0  0  0  0  0
    5.9093    0.9413   -5.3079 C   0  0  0  0  0  0  0  0  0  0  0  0
    7.1520    1.5714   -5.2423 C   0  0  0  0  0  0  0  0  0  0  0  0
    8.0717    1.2576   -4.2326 C   0  0  0  0  0  0  0  0  0  0  0  0
    7.7144    0.2893   -3.2819 C   0  0  0  0  0  0  0  0  0  0  0  0
    6.4774   -0.3485   -3.3330 C   0  0  0  0  0  0  0  0  0  0  0  0
    5.5771   -0.0131   -4.3465 C   0  0  0  0  0  0  0  0  0  0  0  0
    5.2042    1.1707   -6.0992 H   0  0  0  0  0  0  0  0  0  0  0  0
    7.4145    2.3143   -5.9913 H   0  0  0  0  0  0  0  0  0  0  0  0
    8.4183    0.0288   -2.4952 H   0  0  0  0  0  0  0  0  0  0  0  0
    6.2099   -1.1110   -2.6092 H   0  0  0  0  0  0  0  0  0  0  0  0
    3.9746   -0.8163   -4.4060 S   0  0  0  0  0  0  0  0  0  0  0  0
    4.1210   -2.1393   -3.7905 O   0  0  0  0  0  0  0  0  0  0  0  0
    3.4698   -0.6974   -5.7775 O   0  0  0  0  0  0  0  0  0  0  0  0
    3.0766    0.0630   -3.4261 O   0  0  0  0  0  0  0  0  0  0  0  0
    9.4291    1.9187   -4.1856 C   0  0  0  0  0  0  0  0  0  0  0  0
   10.1935    1.2814   -4.6472 H   0  0  0  0  0  0  0  0  0  0  0  0
    9.4294    2.8708   -4.7232 H   0  0  0  0  0  0  0  0  0  0  0  0
    9.7463    2.1088   -3.1557 H   0  0  0  0  0  0  0  0  0  0  0  0
   -2.1186    1.7857   -0.2342 H   0  0  0  0  0  0  0  0  0  0  0  0
  1  7  1  0  0  0  0
  2  8  1  0  0  0  0
  2  1  2  0  0  0  0
  3  2  1  0  0  0  0
  4  3  2  0  0  0  0
  4  5  1  0  0  0  0
  5  6  2  0  0  0  0
  6  1  1  0  0  0  0
  6 31  1  0  0  0  0
  9  4  1  0  0  0  0
 10  5  1  0  0  0  0
 11  3  1  0  0  0  0
 12 11  2  0  0  0  0
 13 14  2  0  0  0  0
 13 18  1  0  0  0  0
 14 15  1  0  0  0  0
 15 27  1  0  0  0  0
 15 16  2  0  0  0  0
 16 21  1  0  0  0  0
 17 16  1  0  0  0  0
 17 22  1  0  0  0  0
 18 17  2  0  0  0  0
 19 13  1  0  0  0  0
 20 14  1  0  0  0  0
 23 18  1  0  0  0  0
 23 24  2  0  0  0  0
 23 26  1  0  0  0  0
 25 23  2  0  0  0  0
 27 30  1  0  0  0  0
 28 27  1  0  0  0  0
 29 27  1  0  0  0  0
M  RAD  2  12   2  26   2
M  END
