Coordinates from ORCA-job Ph-N2-X-OTs-B3LYPG-6-31G_dp-scan-d09-49-n400
 OpenBabel08281821093D

 31 31  0  0  0  0  0  0  0  0999 V2000
   -0.5809    0.6696   -1.1757 C   0  0  0  0  0  0  0  0  0  0  0  0
    0.6035    0.9886   -1.8337 C   0  0  0  0  0  0  0  0  0  0  0  0
    0.5945    2.1034   -2.6887 C   0  0  0  0  0  0  0  0  0  0  0  0
   -0.5489    2.8900   -2.8858 C   0  0  0  0  0  0  0  0  0  0  0  0
   -1.7190    2.5482   -2.2174 C   0  0  0  0  0  0  0  0  0  0  0  0
   -1.7331    1.4397   -1.3650 C   0  0  0  0  0  0  0  0  0  0  0  0
   -0.6032   -0.1898   -0.5133 H   0  0  0  0  0  0  0  0  0  0  0  0
    1.5139    0.4144   -1.7174 H   0  0  0  0  0  0  0  0  0  0  0  0
   -0.5032    3.7417   -3.5556 H   0  0  0  0  0  0  0  0  0  0  0  0
   -2.6163    3.1410   -2.3607 H   0  0  0  0  0  0  0  0  0  0  0  0
    1.7404    2.4908   -3.4007 N   0  0  0  0  0  0  0  0  0  0  0  0
    2.8336    2.2322   -3.6705 N   0  0  0  0  0  0  0  0  0  0  0  0
    5.9510    1.0493   -5.1509 C   0  0  0  0  0  0  0  0  0  0  0  0
    7.2568    1.5032   -5.3353 C   0  0  0  0  0  0  0  0  0  0  0  0
    8.2862    1.1234   -4.4639 C   0  0  0  0  0  0  0  0  0  0  0  0
    7.9735    0.2710   -3.3939 C   0  0  0  0  0  0  0  0  0  0  0  0
    6.6745   -0.1907   -3.1965 C   0  0  0  0  0  0  0  0  0  0  0  0
    5.6660    0.2067   -4.0768 C   0  0  0  0  0  0  0  0  0  0  0  0
    5.1580    1.3298   -5.8352 H   0  0  0  0  0  0  0  0  0  0  0  0
    7.4817    2.1581   -6.1737 H   0  0  0  0  0  0  0  0  0  0  0  0
    8.7600   -0.0387   -2.7100 H   0  0  0  0  0  0  0  0  0  0  0  0
    6.4383   -0.8636   -2.3790 H   0  0  0  0  0  0  0  0  0  0  0  0
    3.9860   -0.3632   -3.8133 S   0  0  0  0  0  0  0  0  0  0  0  0
    4.0620   -1.6822   -3.1734 O   0  0  0  0  0  0  0  0  0  0  0  0
    3.2664   -0.2157   -5.0879 O   0  0  0  0  0  0  0  0  0  0  0  0
    3.3993    0.6461   -2.7545 O   0  0  0  0  0  0  0  0  0  0  0  0
    9.7049    1.5905   -4.6884 C   0  0  0  0  0  0  0  0  0  0  0  0
   10.2857    0.8384   -5.2374 H   0  0  0  0  0  0  0  0  0  0  0  0
    9.7341    2.5153   -5.2720 H   0  0  0  0  0  0  0  0  0  0  0  0
   10.2221    1.7695   -3.7408 H   0  0  0  0  0  0  0  0  0  0  0  0
   -2.6483    1.1740   -0.8448 H   0  0  0  0  0  0  0  0  0  0  0  0
  1  7  1  0  0  0  0
  2  8  1  0  0  0  0
  2  1  2  0  0  0  0
  3  2  1  0  0  0  0
  4  3  2  0  0  0  0
  4  5  1  0  0  0  0
  5  6  2  0  0  0  0
  6  1  1  0  0  0  0
  6 31  1  0  0  0  0
  9  4  1  0  0  0  0
 10  5  1  0  0  0  0
 11  3  1  0  0  0  0
 12 11  2  0  0  0  0
 13 18  1  0  0  0  0
 14 13  2  0  0  0  0
 14 15  1  0  0  0  0
 15 16  2  0  0  0  0
 16 17  1  0  0  0  0
 16 21  1  0  0  0  0
 17 22  1  0  0  0  0
 18 23  1  0  0  0  0
 18 17  2  0  0  0  0
 19 13  1  0  0  0  0
 20 14  1  0  0  0  0
 23 24  2  0  0  0  0
 23 26  1  0  0  0  0
 25 23  2  0  0  0  0
 27 15  1  0  0  0  0
 27 30  1  0  0  0  0
 28 27  1  0  0  0  0
 29 27  1  0  0  0  0
M  RAD  2  12   2  26   2
M  END
