Coordinates from ORCA-job Ph-N2-X-OTs-B3LYPG-6-31G_dp-scan-d09-49-n400
 OpenBabel08281821093D

 31 31  0  0  0  0  0  0  0  0999 V2000
   -0.0049    1.3799   -0.6489 C   0  0  0  0  0  0  0  0  0  0  0  0
    1.0130    1.5317   -1.5867 C   0  0  0  0  0  0  0  0  0  0  0  0
    0.6778    2.0455   -2.8465 C   0  0  0  0  0  0  0  0  0  0  0  0
   -0.6281    2.4345   -3.1666 C   0  0  0  0  0  0  0  0  0  0  0  0
   -1.6339    2.2474   -2.2235 C   0  0  0  0  0  0  0  0  0  0  0  0
   -1.3224    1.7228   -0.9662 C   0  0  0  0  0  0  0  0  0  0  0  0
    0.2340    0.9856    0.3334 H   0  0  0  0  0  0  0  0  0  0  0  0
    2.0376    1.2821   -1.3502 H   0  0  0  0  0  0  0  0  0  0  0  0
   -0.8364    2.8547   -4.1441 H   0  0  0  0  0  0  0  0  0  0  0  0
   -2.6552    2.5231   -2.4646 H   0  0  0  0  0  0  0  0  0  0  0  0
    1.6593    2.2747   -3.8341 N   0  0  0  0  0  0  0  0  0  0  0  0
    2.6413    1.8163   -4.2616 N   0  0  0  0  0  0  0  0  0  0  0  0
    5.9189    1.0749   -5.2724 C   0  0  0  0  0  0  0  0  0  0  0  0
    7.1982    1.6210   -5.1738 C   0  0  0  0  0  0  0  0  0  0  0  0
    8.1106    1.1625   -4.2140 C   0  0  0  0  0  0  0  0  0  0  0  0
    7.7074    0.1344   -3.3489 C   0  0  0  0  0  0  0  0  0  0  0  0
    6.4327   -0.4209   -3.4331 C   0  0  0  0  0  0  0  0  0  0  0  0
    5.5413    0.0589   -4.3946 C   0  0  0  0  0  0  0  0  0  0  0  0
    5.2191    1.4189   -6.0260 H   0  0  0  0  0  0  0  0  0  0  0  0
    7.4939    2.4127   -5.8577 H   0  0  0  0  0  0  0  0  0  0  0  0
    8.4039   -0.2393   -2.6022 H   0  0  0  0  0  0  0  0  0  0  0  0
    6.1294   -1.2281   -2.7748 H   0  0  0  0  0  0  0  0  0  0  0  0
    3.8888   -0.6298   -4.4909 S   0  0  0  0  0  0  0  0  0  0  0  0
    3.9485   -2.0017   -3.9776 O   0  0  0  0  0  0  0  0  0  0  0  0
    3.3792   -0.3760   -5.8426 O   0  0  0  0  0  0  0  0  0  0  0  0
    3.0590    0.2383   -3.4378 O   0  0  0  0  0  0  0  0  0  0  0  0
    9.5057    1.7354   -4.1332 C   0  0  0  0  0  0  0  0  0  0  0  0
   10.2183    1.1165   -4.6921 H   0  0  0  0  0  0  0  0  0  0  0  0
    9.5491    2.7437   -4.5542 H   0  0  0  0  0  0  0  0  0  0  0  0
    9.8602    1.7825   -3.0989 H   0  0  0  0  0  0  0  0  0  0  0  0
   -2.1067    1.5888   -0.2276 H   0  0  0  0  0  0  0  0  0  0  0  0
  1  7  1  0  0  0  0
  2  8  1  0  0  0  0
  2  1  2  0  0  0  0
  3  2  1  0  0  0  0
  4  3  2  0  0  0  0
  4  5  1  0  0  0  0
  5  6  2  0  0  0  0
  6  1  1  0  0  0  0
  6 31  1  0  0  0  0
  9  4  1  0  0  0  0
 10  5  1  0  0  0  0
 11  3  1  0  0  0  0
 12 11  2  0  0  0  0
 13 14  2  0  0  0  0
 13 18  1  0  0  0  0
 14 15  1  0  0  0  0
 15 27  1  0  0  0  0
 15 16  2  0  0  0  0
 16 21  1  0  0  0  0
 17 16  1  0  0  0  0
 17 22  1  0  0  0  0
 18 17  2  0  0  0  0
 19 13  1  0  0  0  0
 20 14  1  0  0  0  0
 23 18  1  0  0  0  0
 23 24  2  0  0  0  0
 23 26  1  0  0  0  0
 25 23  2  0  0  0  0
 27 30  1  0  0  0  0
 28 27  1  0  0  0  0
 29 27  1  0  0  0  0
M  RAD  2  12   2  26   2
M  END
