Coordinates from ORCA-job Ph-N2-X-OTs-B3LYPG-6-31G_dp-scan-d09-49-n400
 OpenBabel08281821093D

 31 31  0  0  0  0  0  0  0  0999 V2000
   -0.3401    0.3481   -1.3995 C   0  0  0  0  0  0  0  0  0  0  0  0
    0.7187    1.0498   -1.9685 C   0  0  0  0  0  0  0  0  0  0  0  0
    0.4134    2.2461   -2.6378 C   0  0  0  0  0  0  0  0  0  0  0  0
   -0.8917    2.7461   -2.7464 C   0  0  0  0  0  0  0  0  0  0  0  0
   -1.9272    2.0260   -2.1632 C   0  0  0  0  0  0  0  0  0  0  0  0
   -1.6498    0.8294   -1.4933 C   0  0  0  0  0  0  0  0  0  0  0  0
   -0.1360   -0.5845   -0.8848 H   0  0  0  0  0  0  0  0  0  0  0  0
    1.7419    0.6970   -1.9134 H   0  0  0  0  0  0  0  0  0  0  0  0
   -1.0705    3.6740   -3.2777 H   0  0  0  0  0  0  0  0  0  0  0  0
   -2.9460    2.3923   -2.2330 H   0  0  0  0  0  0  0  0  0  0  0  0
    1.4253    2.9981   -3.2483 N   0  0  0  0  0  0  0  0  0  0  0  0
    2.5263    3.1611   -3.5129 N   0  0  0  0  0  0  0  0  0  0  0  0
    6.1021    1.3529   -5.1160 C   0  0  0  0  0  0  0  0  0  0  0  0
    7.4703    1.4377   -5.3686 C   0  0  0  0  0  0  0  0  0  0  0  0
    8.4040    0.8313   -4.5164 C   0  0  0  0  0  0  0  0  0  0  0  0
    7.9293    0.1323   -3.3975 C   0  0  0  0  0  0  0  0  0  0  0  0
    6.5642    0.0375   -3.1323 C   0  0  0  0  0  0  0  0  0  0  0  0
    5.6561    0.6538   -3.9940 C   0  0  0  0  0  0  0  0  0  0  0  0
    5.3791    1.8088   -5.7833 H   0  0  0  0  0  0  0  0  0  0  0  0
    7.8193    1.9793   -6.2446 H   0  0  0  0  0  0  0  0  0  0  0  0
    8.6382   -0.3468   -2.7270 H   0  0  0  0  0  0  0  0  0  0  0  0
    6.1979   -0.5162   -2.2744 H   0  0  0  0  0  0  0  0  0  0  0  0
    3.9002    0.5710   -3.6379 S   0  0  0  0  0  0  0  0  0  0  0  0
    3.6541   -0.7054   -2.9406 O   0  0  0  0  0  0  0  0  0  0  0  0
    3.1752    0.8188   -4.9010 O   0  0  0  0  0  0  0  0  0  0  0  0
    3.6464    1.7373   -2.6421 O   0  0  0  0  0  0  0  0  0  0  0  0
    9.8828    0.9016   -4.8157 C   0  0  0  0  0  0  0  0  0  0  0  0
   10.1829    0.1087   -5.5128 H   0  0  0  0  0  0  0  0  0  0  0  0
   10.1536    1.8565   -5.2771 H   0  0  0  0  0  0  0  0  0  0  0  0
   10.4814    0.7819   -3.9081 H   0  0  0  0  0  0  0  0  0  0  0  0
   -2.4619    0.2664   -1.0438 H   0  0  0  0  0  0  0  0  0  0  0  0
  1  7  1  0  0  0  0
  2  8  1  0  0  0  0
  2  1  2  0  0  0  0
  3  2  1  0  0  0  0
  4  3  2  0  0  0  0
  4  5  1  0  0  0  0
  5  6  2  0  0  0  0
  6  1  1  0  0  0  0
  6 31  1  0  0  0  0
  9  4  1  0  0  0  0
 10  5  1  0  0  0  0
 11  3  1  0  0  0  0
 12 11  2  0  0  0  0
 13 18  1  0  0  0  0
 14 13  2  0  0  0  0
 14 15  1  0  0  0  0
 15 16  2  0  0  0  0
 16 17  1  0  0  0  0
 16 21  1  0  0  0  0
 17 22  1  0  0  0  0
 18 23  1  0  0  0  0
 18 17  2  0  0  0  0
 19 13  1  0  0  0  0
 20 14  1  0  0  0  0
 23 24  2  0  0  0  0
 23 26  1  0  0  0  0
 25 23  2  0  0  0  0
 27 15  1  0  0  0  0
 27 30  1  0  0  0  0
 28 27  1  0  0  0  0
 29 27  1  0  0  0  0
M  RAD  2  12   2  26   2
M  END
