Coordinates from ORCA-job Ph-N2-X-OTs-B3LYPG-6-31G_dp-scan-d09-49-n400
 OpenBabel08281821093D

 31 31  0  0  0  0  0  0  0  0999 V2000
   -0.4044    0.3852   -1.4048 C   0  0  0  0  0  0  0  0  0  0  0  0
    0.7130    1.0673   -1.8764 C   0  0  0  0  0  0  0  0  0  0  0  0
    0.4903    2.2541   -2.5936 C   0  0  0  0  0  0  0  0  0  0  0  0
   -0.7911    2.7653   -2.8395 C   0  0  0  0  0  0  0  0  0  0  0  0
   -1.8881    2.0621   -2.3562 C   0  0  0  0  0  0  0  0  0  0  0  0
   -1.6928    0.8751   -1.6419 C   0  0  0  0  0  0  0  0  0  0  0  0
   -0.2640   -0.5394   -0.8552 H   0  0  0  0  0  0  0  0  0  0  0  0
    1.7242    0.7143   -1.7144 H   0  0  0  0  0  0  0  0  0  0  0  0
   -0.9052    3.6869   -3.3990 H   0  0  0  0  0  0  0  0  0  0  0  0
   -2.8907    2.4347   -2.5369 H   0  0  0  0  0  0  0  0  0  0  0  0
    1.5686    2.9870   -3.1052 N   0  0  0  0  0  0  0  0  0  0  0  0
    2.6936    3.1010   -3.2855 N   0  0  0  0  0  0  0  0  0  0  0  0
    6.0207    1.3206   -5.0482 C   0  0  0  0  0  0  0  0  0  0  0  0
    7.3723    1.4530   -5.3627 C   0  0  0  0  0  0  0  0  0  0  0  0
    8.3636    0.8677   -4.5624 C   0  0  0  0  0  0  0  0  0  0  0  0
    7.9641    0.1413   -3.4317 C   0  0  0  0  0  0  0  0  0  0  0  0
    6.6167   -0.0012   -3.1050 C   0  0  0  0  0  0  0  0  0  0  0  0
    5.6500    0.5949   -3.9158 C   0  0  0  0  0  0  0  0  0  0  0  0
    5.2529    1.7593   -5.6757 H   0  0  0  0  0  0  0  0  0  0  0  0
    7.6626    2.0152   -6.2471 H   0  0  0  0  0  0  0  0  0  0  0  0
    8.7185   -0.3222   -2.8011 H   0  0  0  0  0  0  0  0  0  0  0  0
    6.3092   -0.5769   -2.2385 H   0  0  0  0  0  0  0  0  0  0  0  0
    3.9162    0.4457   -3.4801 S   0  0  0  0  0  0  0  0  0  0  0  0
    3.7420   -0.8574   -2.8157 O   0  0  0  0  0  0  0  0  0  0  0  0
    3.1266    0.7181   -4.6986 O   0  0  0  0  0  0  0  0  0  0  0  0
    3.6729    1.5718   -2.4327 O   0  0  0  0  0  0  0  0  0  0  0  0
    9.8238    0.9892   -4.9289 C   0  0  0  0  0  0  0  0  0  0  0  0
   10.1120    0.2254   -5.6622 H   0  0  0  0  0  0  0  0  0  0  0  0
   10.0456    1.9642   -5.3740 H   0  0  0  0  0  0  0  0  0  0  0  0
   10.4682    0.8616   -4.0542 H   0  0  0  0  0  0  0  0  0  0  0  0
   -2.5522    0.3269   -1.2688 H   0  0  0  0  0  0  0  0  0  0  0  0
  1  7  1  0  0  0  0
  2  8  1  0  0  0  0
  2  1  2  0  0  0  0
  3  2  1  0  0  0  0
  4  3  2  0  0  0  0
  4  5  1  0  0  0  0
  5  6  2  0  0  0  0
  6  1  1  0  0  0  0
  6 31  1  0  0  0  0
  9  4  1  0  0  0  0
 10  5  1  0  0  0  0
 11  3  1  0  0  0  0
 12 11  2  0  0  0  0
 13 18  1  0  0  0  0
 14 13  2  0  0  0  0
 14 15  1  0  0  0  0
 15 16  2  0  0  0  0
 16 17  1  0  0  0  0
 16 21  1  0  0  0  0
 17 22  1  0  0  0  0
 18 23  1  0  0  0  0
 18 17  2  0  0  0  0
 19 13  1  0  0  0  0
 20 14  1  0  0  0  0
 23 24  2  0  0  0  0
 23 26  1  0  0  0  0
 25 23  2  0  0  0  0
 27 15  1  0  0  0  0
 27 30  1  0  0  0  0
 28 27  1  0  0  0  0
 29 27  1  0  0  0  0
M  RAD  2  12   2  26   2
M  END
