Coordinates from ORCA-job Ph-N2-X-OTs-B3LYPG-6-31G_dp-scan-d09-49-n400
 OpenBabel08281821093D

 31 31  0  0  0  0  0  0  0  0999 V2000
   -0.0417    0.2595   -1.3892 C   0  0  0  0  0  0  0  0  0  0  0  0
    0.7446    0.9393   -2.3174 C   0  0  0  0  0  0  0  0  0  0  0  0
    0.2324    2.1471   -2.8163 C   0  0  0  0  0  0  0  0  0  0  0  0
   -1.0113    2.6733   -2.4375 C   0  0  0  0  0  0  0  0  0  0  0  0
   -1.7618    1.9762   -1.4994 C   0  0  0  0  0  0  0  0  0  0  0  0
   -1.2761    0.7709   -0.9788 C   0  0  0  0  0  0  0  0  0  0  0  0
    0.3196   -0.6815   -0.9887 H   0  0  0  0  0  0  0  0  0  0  0  0
    1.7002    0.5383   -2.6568 H   0  0  0  0  0  0  0  0  0  0  0  0
   -1.3585    3.6059   -2.8676 H   0  0  0  0  0  0  0  0  0  0  0  0
   -2.7229    2.3641   -1.1805 H   0  0  0  0  0  0  0  0  0  0  0  0
    0.9610    2.8766   -3.7648 N   0  0  0  0  0  0  0  0  0  0  0  0
    1.9116    3.1511   -4.3305 N   0  0  0  0  0  0  0  0  0  0  0  0
    6.3049    1.3767   -5.3656 C   0  0  0  0  0  0  0  0  0  0  0  0
    7.6986    1.3506   -5.3596 C   0  0  0  0  0  0  0  0  0  0  0  0
    8.4087    0.7707   -4.2990 C   0  0  0  0  0  0  0  0  0  0  0  0
    7.6825    0.2134   -3.2366 C   0  0  0  0  0  0  0  0  0  0  0  0
    6.2891    0.2310   -3.2285 C   0  0  0  0  0  0  0  0  0  0  0  0
    5.6065    0.8170   -4.2953 C   0  0  0  0  0  0  0  0  0  0  0  0
    5.7549    1.8116   -6.1930 H   0  0  0  0  0  0  0  0  0  0  0  0
    8.2442    1.7837   -6.1946 H   0  0  0  0  0  0  0  0  0  0  0  0
    8.2159   -0.2425   -2.4060 H   0  0  0  0  0  0  0  0  0  0  0  0
    5.7282   -0.2136   -2.4137 H   0  0  0  0  0  0  0  0  0  0  0  0
    3.8146    0.8827   -4.2807 S   0  0  0  0  0  0  0  0  0  0  0  0
    3.3450   -0.2972   -3.5106 O   0  0  0  0  0  0  0  0  0  0  0  0
    3.3528    0.9916   -5.6774 O   0  0  0  0  0  0  0  0  0  0  0  0
    3.4982    2.1671   -3.4849 O   0  0  0  0  0  0  0  0  0  0  0  0
    9.9180    0.7164   -4.3159 C   0  0  0  0  0  0  0  0  0  0  0  0
   10.2747   -0.2110   -4.7823 H   0  0  0  0  0  0  0  0  0  0  0  0
   10.3431    1.5492   -4.8841 H   0  0  0  0  0  0  0  0  0  0  0  0
   10.3323    0.7492   -3.3039 H   0  0  0  0  0  0  0  0  0  0  0  0
   -1.8699    0.2235   -0.2528 H   0  0  0  0  0  0  0  0  0  0  0  0
  1  7  1  0  0  0  0
  1  6  1  0  0  0  0
  2  1  2  0  0  0  0
  3  4  2  0  0  0  0
  3  2  1  0  0  0  0
  4  5  1  0  0  0  0
  5 10  1  0  0  0  0
  5  6  2  0  0  0  0
  6 31  1  0  0  0  0
  8  2  1  0  0  0  0
  9  4  1  0  0  0  0
 11  3  1  0  0  0  0
 12 11  2  0  0  0  0
 13 14  2  0  0  0  0
 13 18  1  0  0  0  0
 14 15  1  0  0  0  0
 15 16  2  0  0  0  0
 16 17  1  0  0  0  0
 16 21  1  0  0  0  0
 17 22  1  0  0  0  0
 18 23  1  0  0  0  0
 18 17  2  0  0  0  0
 19 13  1  0  0  0  0
 20 14  1  0  0  0  0
 23 24  2  0  0  0  0
 23 26  1  0  0  0  0
 25 23  2  0  0  0  0
 27 15  1  0  0  0  0
 27 30  1  0  0  0  0
 28 27  1  0  0  0  0
 29 27  1  0  0  0  0
M  RAD  2  12   2  26   2
M  END
