Coordinates from ORCA-job Ph-N2-X-OTs-B3LYPG-6-31G_dp-scan-d09-49-n400
 OpenBabel08281821093D

 31 31  0  0  0  0  0  0  0  0999 V2000
   -0.3068    0.3441   -1.3678 C   0  0  0  0  0  0  0  0  0  0  0  0
    0.6977    1.0090   -2.0656 C   0  0  0  0  0  0  0  0  0  0  0  0
    0.3530    2.2147   -2.6979 C   0  0  0  0  0  0  0  0  0  0  0  0
   -0.9389    2.7563   -2.6509 C   0  0  0  0  0  0  0  0  0  0  0  0
   -1.9178    2.0746   -1.9377 C   0  0  0  0  0  0  0  0  0  0  0  0
   -1.6006    0.8706   -1.3000 C   0  0  0  0  0  0  0  0  0  0  0  0
   -0.0724   -0.5947   -0.8777 H   0  0  0  0  0  0  0  0  0  0  0  0
    1.7065    0.6189   -2.1345 H   0  0  0  0  0  0  0  0  0  0  0  0
   -1.1513    3.6880   -3.1630 H   0  0  0  0  0  0  0  0  0  0  0  0
   -2.9240    2.4763   -1.8823 H   0  0  0  0  0  0  0  0  0  0  0  0
    1.3054    2.9327   -3.4351 N   0  0  0  0  0  0  0  0  0  0  0  0
    2.3840    3.0792   -3.7906 N   0  0  0  0  0  0  0  0  0  0  0  0
    6.1686    1.3589   -5.1896 C   0  0  0  0  0  0  0  0  0  0  0  0
    7.5498    1.4491   -5.3571 C   0  0  0  0  0  0  0  0  0  0  0  0
    8.4313    0.8396   -4.4535 C   0  0  0  0  0  0  0  0  0  0  0  0
    7.8906    0.1315   -3.3705 C   0  0  0  0  0  0  0  0  0  0  0  0
    6.5125    0.0315   -3.1900 C   0  0  0  0  0  0  0  0  0  0  0  0
    5.6569    0.6511   -4.1020 C   0  0  0  0  0  0  0  0  0  0  0  0
    5.4871    1.8180   -5.8973 H   0  0  0  0  0  0  0  0  0  0  0  0
    7.9499    1.9976   -6.2066 H   0  0  0  0  0  0  0  0  0  0  0  0
    8.5582   -0.3506   -2.6607 H   0  0  0  0  0  0  0  0  0  0  0  0
    6.0958   -0.5285   -2.3597 H   0  0  0  0  0  0  0  0  0  0  0  0
    3.8828    0.5629   -3.8549 S   0  0  0  0  0  0  0  0  0  0  0  0
    3.6003   -0.7036   -3.1521 O   0  0  0  0  0  0  0  0  0  0  0  0
    3.2348    0.7858   -5.1626 O   0  0  0  0  0  0  0  0  0  0  0  0
    3.5683    1.7432   -2.8925 O   0  0  0  0  0  0  0  0  0  0  0  0
    9.9259    0.9141   -4.6590 C   0  0  0  0  0  0  0  0  0  0  0  0
   10.2847    0.0686   -5.2602 H   0  0  0  0  0  0  0  0  0  0  0  0
   10.2135    1.8299   -5.1842 H   0  0  0  0  0  0  0  0  0  0  0  0
   10.4630    0.8856   -3.7065 H   0  0  0  0  0  0  0  0  0  0  0  0
   -2.3694    0.3368   -0.7498 H   0  0  0  0  0  0  0  0  0  0  0  0
  1  6  1  0  0  0  0
  1  7  1  0  0  0  0
  2  1  2  0  0  0  0
  3  4  2  0  0  0  0
  3  2  1  0  0  0  0
  4  5  1  0  0  0  0
  5 10  1  0  0  0  0
  5  6  2  0  0  0  0
  6 31  1  0  0  0  0
  8  2  1  0  0  0  0
  9  4  1  0  0  0  0
 11  3  1  0  0  0  0
 12 11  2  0  0  0  0
 13 18  1  0  0  0  0
 14 13  2  0  0  0  0
 14 15  1  0  0  0  0
 15 16  2  0  0  0  0
 16 17  1  0  0  0  0
 16 21  1  0  0  0  0
 17 22  1  0  0  0  0
 18 23  1  0  0  0  0
 18 17  2  0  0  0  0
 19 13  1  0  0  0  0
 20 14  1  0  0  0  0
 23 24  2  0  0  0  0
 23 26  1  0  0  0  0
 25 23  2  0  0  0  0
 27 15  1  0  0  0  0
 27 30  1  0  0  0  0
 28 27  1  0  0  0  0
 29 27  1  0  0  0  0
M  RAD  2  12   2  26   2
M  END
