Coordinates from ORCA-job Ph-N2-X-OTs-B3LYPG-6-31G_dp-scan-d09-49-n400
 OpenBabel08281821093D

 31 31  0  0  0  0  0  0  0  0999 V2000
   -0.1638    1.0802   -0.8122 C   0  0  0  0  0  0  0  0  0  0  0  0
    0.8562    1.1304   -1.7585 C   0  0  0  0  0  0  0  0  0  0  0  0
    0.6827    1.9697   -2.8702 C   0  0  0  0  0  0  0  0  0  0  0  0
   -0.4668    2.7550   -3.0346 C   0  0  0  0  0  0  0  0  0  0  0  0
   -1.4792    2.6763   -2.0844 C   0  0  0  0  0  0  0  0  0  0  0  0
   -1.3261    1.8403   -0.9746 C   0  0  0  0  0  0  0  0  0  0  0  0
   -0.0498    0.4391    0.0561 H   0  0  0  0  0  0  0  0  0  0  0  0
    1.7624    0.5521   -1.6528 H   0  0  0  0  0  0  0  0  0  0  0  0
   -0.5504    3.3990   -3.9033 H   0  0  0  0  0  0  0  0  0  0  0  0
   -2.3809    3.2677   -2.2050 H   0  0  0  0  0  0  0  0  0  0  0  0
    1.6603    2.1059   -3.8711 N   0  0  0  0  0  0  0  0  0  0  0  0
    2.6182    1.6180   -4.3170 N   0  0  0  0  0  0  0  0  0  0  0  0
    5.9081    0.9504   -5.3033 C   0  0  0  0  0  0  0  0  0  0  0  0
    7.1521    1.5776   -5.2350 C   0  0  0  0  0  0  0  0  0  0  0  0
    8.0734    1.2533   -4.2300 C   0  0  0  0  0  0  0  0  0  0  0  0
    7.7162    0.2776   -3.2869 C   0  0  0  0  0  0  0  0  0  0  0  0
    6.4778   -0.3573   -3.3407 C   0  0  0  0  0  0  0  0  0  0  0  0
    5.5760   -0.0114   -4.3493 C   0  0  0  0  0  0  0  0  0  0  0  0
    5.2019    1.1880   -6.0911 H   0  0  0  0  0  0  0  0  0  0  0  0
    7.4144    2.3265   -5.9781 H   0  0  0  0  0  0  0  0  0  0  0  0
    8.4214    0.0088   -2.5041 H   0  0  0  0  0  0  0  0  0  0  0  0
    6.2103   -1.1254   -2.6229 H   0  0  0  0  0  0  0  0  0  0  0  0
    3.9714   -0.8103   -4.4118 S   0  0  0  0  0  0  0  0  0  0  0  0
    4.1145   -2.1359   -3.8013 O   0  0  0  0  0  0  0  0  0  0  0  0
    3.4671   -0.6853   -5.7830 O   0  0  0  0  0  0  0  0  0  0  0  0
    3.0754    0.0683   -3.4293 O   0  0  0  0  0  0  0  0  0  0  0  0
    9.4321    1.9115   -4.1802 C   0  0  0  0  0  0  0  0  0  0  0  0
   10.1947    1.2759   -4.6471 H   0  0  0  0  0  0  0  0  0  0  0  0
    9.4335    2.8672   -4.7113 H   0  0  0  0  0  0  0  0  0  0  0  0
    9.7510    2.0939   -3.1494 H   0  0  0  0  0  0  0  0  0  0  0  0
   -2.1146    1.7837   -0.2298 H   0  0  0  0  0  0  0  0  0  0  0  0
  1  7  1  0  0  0  0
  2  8  1  0  0  0  0
  2  1  2  0  0  0  0
  3  2  1  0  0  0  0
  4  3  2  0  0  0  0
  4  5  1  0  0  0  0
  5  6  2  0  0  0  0
  6  1  1  0  0  0  0
  6 31  1  0  0  0  0
  9  4  1  0  0  0  0
 10  5  1  0  0  0  0
 11  3  1  0  0  0  0
 12 11  2  0  0  0  0
 13 14  2  0  0  0  0
 13 18  1  0  0  0  0
 14 15  1  0  0  0  0
 15 27  1  0  0  0  0
 15 16  2  0  0  0  0
 16 21  1  0  0  0  0
 17 16  1  0  0  0  0
 17 22  1  0  0  0  0
 18 17  2  0  0  0  0
 19 13  1  0  0  0  0
 20 14  1  0  0  0  0
 23 18  1  0  0  0  0
 23 24  2  0  0  0  0
 23 26  1  0  0  0  0
 25 23  2  0  0  0  0
 27 30  1  0  0  0  0
 28 27  1  0  0  0  0
 29 27  1  0  0  0  0
M  RAD  2  12   2  26   2
M  END
