Coordinates from ORCA-job Ph-N2-X-OTs-B3LYPG-6-31G_dp-scan-d09-49-n400
 OpenBabel08281821093D

 31 31  0  0  0  0  0  0  0  0999 V2000
   -0.5386    0.7364   -1.1134 C   0  0  0  0  0  0  0  0  0  0  0  0
    0.6099    0.9477   -1.8711 C   0  0  0  0  0  0  0  0  0  0  0  0
    0.6240    2.0475   -2.7453 C   0  0  0  0  0  0  0  0  0  0  0  0
   -0.4652    2.9223   -2.8636 C   0  0  0  0  0  0  0  0  0  0  0  0
   -1.6007    2.6888   -2.0961 C   0  0  0  0  0  0  0  0  0  0  0  0
   -1.6357    1.5969   -1.2234 C   0  0  0  0  0  0  0  0  0  0  0  0
   -0.5761   -0.1091   -0.4338 H   0  0  0  0  0  0  0  0  0  0  0  0
    1.4749    0.2999   -1.8140 H   0  0  0  0  0  0  0  0  0  0  0  0
   -0.4052    3.7583   -3.5520 H   0  0  0  0  0  0  0  0  0  0  0  0
   -2.4551    3.3528   -2.1780 H   0  0  0  0  0  0  0  0  0  0  0  0
    1.7312    2.3370   -3.5593 N   0  0  0  0  0  0  0  0  0  0  0  0
    2.7803    1.9777   -3.8969 N   0  0  0  0  0  0  0  0  0  0  0  0
    5.9495    0.9573   -5.2325 C   0  0  0  0  0  0  0  0  0  0  0  0
    7.2325    1.4940   -5.3391 C   0  0  0  0  0  0  0  0  0  0  0  0
    8.2248    1.1934   -4.3966 C   0  0  0  0  0  0  0  0  0  0  0  0
    7.8985    0.3355   -3.3351 C   0  0  0  0  0  0  0  0  0  0  0  0
    6.6221   -0.2085   -3.2146 C   0  0  0  0  0  0  0  0  0  0  0  0
    5.6502    0.1109   -4.1653 C   0  0  0  0  0  0  0  0  0  0  0  0
    5.1864    1.1770   -5.9710 H   0  0  0  0  0  0  0  0  0  0  0  0
    7.4689    2.1519   -6.1717 H   0  0  0  0  0  0  0  0  0  0  0  0
    8.6569    0.0864   -2.5968 H   0  0  0  0  0  0  0  0  0  0  0  0
    6.3768   -0.8854   -2.4034 H   0  0  0  0  0  0  0  0  0  0  0  0
    3.9993   -0.5701   -4.0044 S   0  0  0  0  0  0  0  0  0  0  0  0
    4.1201   -1.8722   -3.3389 O   0  0  0  0  0  0  0  0  0  0  0  0
    3.3537   -0.4789   -5.3206 O   0  0  0  0  0  0  0  0  0  0  0  0
    3.2799    0.4068   -2.9881 O   0  0  0  0  0  0  0  0  0  0  0  0
    9.6221    1.7499   -4.5362 C   0  0  0  0  0  0  0  0  0  0  0  0
   10.2832    1.0330   -5.0394 H   0  0  0  0  0  0  0  0  0  0  0  0
    9.6293    2.6707   -5.1265 H   0  0  0  0  0  0  0  0  0  0  0  0
   10.0653    1.9679   -3.5598 H   0  0  0  0  0  0  0  0  0  0  0  0
   -2.5236    1.4152   -0.6252 H   0  0  0  0  0  0  0  0  0  0  0  0
  1  7  1  0  0  0  0
  2  8  1  0  0  0  0
  2  1  2  0  0  0  0
  3  2  1  0  0  0  0
  4  3  2  0  0  0  0
  4  5  1  0  0  0  0
  5  6  2  0  0  0  0
  6  1  1  0  0  0  0
  6 31  1  0  0  0  0
  9  4  1  0  0  0  0
 10  5  1  0  0  0  0
 11  3  1  0  0  0  0
 12 11  2  0  0  0  0
 13 18  1  0  0  0  0
 14 13  2  0  0  0  0
 14 15  1  0  0  0  0
 15 16  2  0  0  0  0
 16 17  1  0  0  0  0
 16 21  1  0  0  0  0
 17 22  1  0  0  0  0
 18 23  1  0  0  0  0
 18 17  2  0  0  0  0
 19 13  1  0  0  0  0
 20 14  1  0  0  0  0
 23 24  2  0  0  0  0
 23 26  1  0  0  0  0
 25 23  2  0  0  0  0
 27 15  1  0  0  0  0
 27 30  1  0  0  0  0
 28 27  1  0  0  0  0
 29 27  1  0  0  0  0
M  RAD  2  12   2  26   2
M  END
