Coordinates from ORCA-job Ph-N2-X-OTs-B3LYPG-6-31G_dp-scan-d09-49-n400
 OpenBabel08281821093D

 31 31  0  0  0  0  0  0  0  0999 V2000
   -0.4864    0.4365   -1.3900 C   0  0  0  0  0  0  0  0  0  0  0  0
    0.6802    1.0495   -1.8362 C   0  0  0  0  0  0  0  0  0  0  0  0
    0.5459    2.2326   -2.5811 C   0  0  0  0  0  0  0  0  0  0  0  0
   -0.6975    2.8068   -2.8771 C   0  0  0  0  0  0  0  0  0  0  0  0
   -1.8459    2.1712   -2.4200 C   0  0  0  0  0  0  0  0  0  0  0  0
   -1.7383    0.9893   -1.6795 C   0  0  0  0  0  0  0  0  0  0  0  0
   -0.4145   -0.4828   -0.8187 H   0  0  0  0  0  0  0  0  0  0  0  0
    1.6677    0.6520   -1.6362 H   0  0  0  0  0  0  0  0  0  0  0  0
   -0.7437    3.7232   -3.4545 H   0  0  0  0  0  0  0  0  0  0  0  0
   -2.8206    2.5926   -2.6408 H   0  0  0  0  0  0  0  0  0  0  0  0
    1.6784    2.8985   -3.0677 N   0  0  0  0  0  0  0  0  0  0  0  0
    2.8150    2.9275   -3.2160 N   0  0  0  0  0  0  0  0  0  0  0  0
    5.9685    1.2571   -5.0284 C   0  0  0  0  0  0  0  0  0  0  0  0
    7.3071    1.4672   -5.3566 C   0  0  0  0  0  0  0  0  0  0  0  0
    8.3383    0.9298   -4.5737 C   0  0  0  0  0  0  0  0  0  0  0  0
    7.9925    0.1714   -3.4460 C   0  0  0  0  0  0  0  0  0  0  0  0
    6.6592   -0.0486   -3.1060 C   0  0  0  0  0  0  0  0  0  0  0  0
    5.6513    0.5013   -3.8995 C   0  0  0  0  0  0  0  0  0  0  0  0
    5.1704    1.6590   -5.6425 H   0  0  0  0  0  0  0  0  0  0  0  0
    7.5555    2.0529   -6.2385 H   0  0  0  0  0  0  0  0  0  0  0  0
    8.7785   -0.2561   -2.8288 H   0  0  0  0  0  0  0  0  0  0  0  0
    6.3946   -0.6492   -2.2422 H   0  0  0  0  0  0  0  0  0  0  0  0
    3.9338    0.2493   -3.4466 S   0  0  0  0  0  0  0  0  0  0  0  0
    3.8363   -1.0775   -2.8184 O   0  0  0  0  0  0  0  0  0  0  0  0
    3.1154    0.5237   -4.6445 O   0  0  0  0  0  0  0  0  0  0  0  0
    3.6501    1.3321   -2.3594 O   0  0  0  0  0  0  0  0  0  0  0  0
    9.7853    1.1344   -4.9553 C   0  0  0  0  0  0  0  0  0  0  0  0
   10.1082    0.3894   -5.6935 H   0  0  0  0  0  0  0  0  0  0  0  0
    9.9466    2.1212   -5.4005 H   0  0  0  0  0  0  0  0  0  0  0  0
   10.4452    1.0416   -4.0878 H   0  0  0  0  0  0  0  0  0  0  0  0
   -2.6377    0.4948   -1.3259 H   0  0  0  0  0  0  0  0  0  0  0  0
  1  7  1  0  0  0  0
  2  8  1  0  0  0  0
  2  1  2  0  0  0  0
  3  2  1  0  0  0  0
  4  3  2  0  0  0  0
  4  5  1  0  0  0  0
  5  6  2  0  0  0  0
  6  1  1  0  0  0  0
  6 31  1  0  0  0  0
  9  4  1  0  0  0  0
 10  5  1  0  0  0  0
 11  3  1  0  0  0  0
 12 11  2  0  0  0  0
 13 18  1  0  0  0  0
 14 13  2  0  0  0  0
 14 15  1  0  0  0  0
 15 16  2  0  0  0  0
 16 17  1  0  0  0  0
 16 21  1  0  0  0  0
 17 22  1  0  0  0  0
 18 23  1  0  0  0  0
 18 17  2  0  0  0  0
 19 13  1  0  0  0  0
 20 14  1  0  0  0  0
 23 24  2  0  0  0  0
 23 26  1  0  0  0  0
 25 23  2  0  0  0  0
 27 15  1  0  0  0  0
 27 30  1  0  0  0  0
 28 27  1  0  0  0  0
 29 27  1  0  0  0  0
M  RAD  2  12   2  26   2
M  END
