Coordinates from ORCA-job Ph-N2-X-OTs-B3LYPG-6-31G_dp-scan-d09-49-n400
 OpenBabel08281821093D

 31 31  0  0  0  0  0  0  0  0999 V2000
    0.2202    0.1681   -1.4826 C   0  0  0  0  0  0  0  0  0  0  0  0
    0.8490    0.9221   -2.4743 C   0  0  0  0  0  0  0  0  0  0  0  0
    0.2159    2.1255   -2.8228 C   0  0  0  0  0  0  0  0  0  0  0  0
   -0.9840    2.5848   -2.2561 C   0  0  0  0  0  0  0  0  0  0  0  0
   -1.5681    1.8077   -1.2664 C   0  0  0  0  0  0  0  0  0  0  0  0
   -0.9649    0.6016   -0.8834 C   0  0  0  0  0  0  0  0  0  0  0  0
    0.6682   -0.7733   -1.1815 H   0  0  0  0  0  0  0  0  0  0  0  0
    1.7860    0.5851   -2.9829 H   0  0  0  0  0  0  0  0  0  0  0  0
   -1.4214    3.5218   -2.5822 H   0  0  0  0  0  0  0  0  0  0  0  0
   -2.4906    2.1332   -0.7984 H   0  0  0  0  0  0  0  0  0  0  0  0
    0.7992    2.9184   -3.8134 N   0  0  0  0  0  0  0  0  0  0  0  0
    1.5874    3.3424   -4.5044 N   0  0  0  0  0  0  0  0  0  0  0  0
    6.3602    1.3063   -5.5087 C   0  0  0  0  0  0  0  0  0  0  0  0
    7.7424    1.1667   -5.3797 C   0  0  0  0  0  0  0  0  0  0  0  0
    8.3163    0.7018   -4.1895 C   0  0  0  0  0  0  0  0  0  0  0  0
    7.4651    0.3753   -3.1220 C   0  0  0  0  0  0  0  0  0  0  0  0
    6.0841    0.5087   -3.2362 C   0  0  0  0  0  0  0  0  0  0  0  0
    5.5371    0.9776   -4.4328 C   0  0  0  0  0  0  0  0  0  0  0  0
    5.9132    1.6546   -6.4334 H   0  0  0  0  0  0  0  0  0  0  0  0
    8.3851    1.4207   -6.2189 H   0  0  0  0  0  0  0  0  0  0  0  0
    7.8920    0.0089   -2.1914 H   0  0  0  0  0  0  0  0  0  0  0  0
    5.4282    0.2405   -2.4153 H   0  0  0  0  0  0  0  0  0  0  0  0
    3.7634    1.1976   -4.5836 S   0  0  0  0  0  0  0  0  0  0  0  0
    3.1370    0.0891   -3.7938 O   0  0  0  0  0  0  0  0  0  0  0  0
    3.4311    1.2206   -6.0190 O   0  0  0  0  0  0  0  0  0  0  0  0
    3.4920    2.5310   -3.8912 O   0  0  0  0  0  0  0  0  0  0  0  0
    9.8111    0.5285   -4.0607 C   0  0  0  0  0  0  0  0  0  0  0  0
   10.0943   -0.5290   -4.1289 H   0  0  0  0  0  0  0  0  0  0  0  0
   10.3464    1.0637   -4.8497 H   0  0  0  0  0  0  0  0  0  0  0  0
   10.1749    0.8966   -3.0956 H   0  0  0  0  0  0  0  0  0  0  0  0
   -1.4314   -0.0058   -0.1132 H   0  0  0  0  0  0  0  0  0  0  0  0
  1  7  1  0  0  0  0
  1  6  2  0  0  0  0
  2  1  1  0  0  0  0
  3  2  2  0  0  0  0
  3  4  1  0  0  0  0
  4  5  2  0  0  0  0
  5  6  1  0  0  0  0
  5 10  1  0  0  0  0
  6 31  1  0  0  0  0
  8  2  1  0  0  0  0
  9  4  1  0  0  0  0
 11  3  1  0  0  0  0
 12 11  1  0  0  0  0
 13 14  2  0  0  0  0
 13 18  1  0  0  0  0
 14 15  1  0  0  0  0
 15 27  1  0  0  0  0
 15 16  2  0  0  0  0
 16 21  1  0  0  0  0
 17 16  1  0  0  0  0
 17 22  1  0  0  0  0
 18 17  2  0  0  0  0
 19 13  1  0  0  0  0
 20 14  1  0  0  0  0
 23 18  1  0  0  0  0
 23 26  2  0  0  0  0
 23 24  1  0  0  0  0
 25 23  2  0  0  0  0
 27 30  1  0  0  0  0
 28 27  1  0  0  0  0
 29 27  1  0  0  0  0
M  RAD  3  11   2  12   3  24   2
M  END
