Coordinates from ORCA-job Ph-N2-X-OTs-B3LYPG-6-31G_dp-scan-d09-49-n400
 OpenBabel08281821093D

 31 31  0  0  0  0  0  0  0  0999 V2000
   -0.1836    1.0519   -0.8310 C   0  0  0  0  0  0  0  0  0  0  0  0
    0.8387    1.0987   -1.7749 C   0  0  0  0  0  0  0  0  0  0  0  0
    0.6864    1.9658   -2.8685 C   0  0  0  0  0  0  0  0  0  0  0  0
   -0.4450    2.7802   -3.0173 C   0  0  0  0  0  0  0  0  0  0  0  0
   -1.4596    2.7057   -2.0693 C   0  0  0  0  0  0  0  0  0  0  0  0
   -1.3273    1.8428   -0.9775 C   0  0  0  0  0  0  0  0  0  0  0  0
   -0.0859    0.3894    0.0231 H   0  0  0  0  0  0  0  0  0  0  0  0
    1.7307    0.4966   -1.6820 H   0  0  0  0  0  0  0  0  0  0  0  0
   -0.5129    3.4437   -3.8726 H   0  0  0  0  0  0  0  0  0  0  0  0
   -2.3472    3.3204   -2.1779 H   0  0  0  0  0  0  0  0  0  0  0  0
    1.6663    2.0997   -3.8672 N   0  0  0  0  0  0  0  0  0  0  0  0
    2.6225    1.6092   -4.3139 N   0  0  0  0  0  0  0  0  0  0  0  0
    5.9098    0.9356   -5.3111 C   0  0  0  0  0  0  0  0  0  0  0  0
    7.1514    1.5680   -5.2460 C   0  0  0  0  0  0  0  0  0  0  0  0
    8.0697    1.2604   -4.2331 C   0  0  0  0  0  0  0  0  0  0  0  0
    7.7120    0.2961   -3.2784 C   0  0  0  0  0  0  0  0  0  0  0  0
    6.4761   -0.3439   -3.3289 C   0  0  0  0  0  0  0  0  0  0  0  0
    5.5773   -0.0147   -4.3458 C   0  0  0  0  0  0  0  0  0  0  0  0
    5.2059    1.1603   -6.1047 H   0  0  0  0  0  0  0  0  0  0  0  0
    7.4142    2.3077   -5.9981 H   0  0  0  0  0  0  0  0  0  0  0  0
    8.4148    0.0405   -2.4891 H   0  0  0  0  0  0  0  0  0  0  0  0
    6.2085   -1.1033   -2.6021 H   0  0  0  0  0  0  0  0  0  0  0  0
    3.9763   -0.8210   -4.4047 S   0  0  0  0  0  0  0  0  0  0  0  0
    4.1247   -2.1424   -3.7864 O   0  0  0  0  0  0  0  0  0  0  0  0
    3.4721   -0.7055   -5.7767 O   0  0  0  0  0  0  0  0  0  0  0  0
    3.0762    0.0584   -3.4268 O   0  0  0  0  0  0  0  0  0  0  0  0
    9.4260    1.9238   -4.1867 C   0  0  0  0  0  0  0  0  0  0  0  0
   10.1920    1.2860   -4.6449 H   0  0  0  0  0  0  0  0  0  0  0  0
    9.4256    2.8739   -4.7279 H   0  0  0  0  0  0  0  0  0  0  0  0
    9.7415    2.1182   -3.1571 H   0  0  0  0  0  0  0  0  0  0  0  0
   -2.1178    1.7888   -0.2345 H   0  0  0  0  0  0  0  0  0  0  0  0
  1  7  1  0  0  0  0
  2  8  1  0  0  0  0
  2  1  2  0  0  0  0
  3  2  1  0  0  0  0
  4  3  2  0  0  0  0
  4  5  1  0  0  0  0
  5  6  2  0  0  0  0
  6  1  1  0  0  0  0
  6 31  1  0  0  0  0
  9  4  1  0  0  0  0
 10  5  1  0  0  0  0
 11  3  1  0  0  0  0
 12 11  2  0  0  0  0
 13 14  2  0  0  0  0
 13 18  1  0  0  0  0
 14 15  1  0  0  0  0
 15 27  1  0  0  0  0
 15 16  2  0  0  0  0
 16 21  1  0  0  0  0
 17 16  1  0  0  0  0
 17 22  1  0  0  0  0
 18 17  2  0  0  0  0
 19 13  1  0  0  0  0
 20 14  1  0  0  0  0
 23 18  1  0  0  0  0
 23 24  2  0  0  0  0
 23 26  1  0  0  0  0
 25 23  2  0  0  0  0
 27 30  1  0  0  0  0
 28 27  1  0  0  0  0
 29 27  1  0  0  0  0
M  RAD  2  12   2  26   2
M  END
