Coordinates from ORCA-job Ph-N2-X-OTs-B3LYPG-6-31G_dp-scan-d09-49-n400
 OpenBabel08281821093D

 31 31  0  0  0  0  0  0  0  0999 V2000
    0.4321   -0.0770   -2.0767 C   0  0  0  0  0  0  0  0  0  0  0  0
    0.9719    0.9769   -2.8351 C   0  0  0  0  0  0  0  0  0  0  0  0
    0.2690    2.1823   -2.6706 C   0  0  0  0  0  0  0  0  0  0  0  0
   -0.8667    2.4086   -1.8589 C   0  0  0  0  0  0  0  0  0  0  0  0
   -1.3388    1.3250   -1.1443 C   0  0  0  0  0  0  0  0  0  0  0  0
   -0.6854    0.0820   -1.2580 C   0  0  0  0  0  0  0  0  0  0  0  0
    0.9073   -1.0530   -2.1370 H   0  0  0  0  0  0  0  0  0  0  0  0
    2.0367    0.8266   -3.6186 H   0  0  0  0  0  0  0  0  0  0  0  0
   -1.3358    3.3856   -1.8042 H   0  0  0  0  0  0  0  0  0  0  0  0
   -2.2077    1.4336   -0.5042 H   0  0  0  0  0  0  0  0  0  0  0  0
    0.7379    3.2709   -3.3947 N   0  0  0  0  0  0  0  0  0  0  0  0
    1.1844    4.0966   -3.9963 N   0  0  0  0  0  0  0  0  0  0  0  0
    6.2255    0.6642   -5.4926 C   0  0  0  0  0  0  0  0  0  0  0  0
    7.5431    0.2849   -5.2397 C   0  0  0  0  0  0  0  0  0  0  0  0
    8.1569    0.5689   -4.0124 C   0  0  0  0  0  0  0  0  0  0  0  0
    7.4154    1.2569   -3.0406 C   0  0  0  0  0  0  0  0  0  0  0  0
    6.0973    1.6407   -3.2783 C   0  0  0  0  0  0  0  0  0  0  0  0
    5.5061    1.3372   -4.5053 C   0  0  0  0  0  0  0  0  0  0  0  0
    5.7583    0.4617   -6.4502 H   0  0  0  0  0  0  0  0  0  0  0  0
    8.1070   -0.2327   -6.0119 H   0  0  0  0  0  0  0  0  0  0  0  0
    7.8796    1.5025   -2.0884 H   0  0  0  0  0  0  0  0  0  0  0  0
    5.5316    2.1904   -2.5338 H   0  0  0  0  0  0  0  0  0  0  0  0
    3.8020    1.7992   -4.8191 S   0  0  0  0  0  0  0  0  0  0  0  0
    2.9905    0.5892   -4.3084 O   0  0  0  0  0  0  0  0  0  0  0  0
    3.6553    1.9819   -6.2696 O   0  0  0  0  0  0  0  0  0  0  0  0
    3.5099    2.9788   -3.9594 O   0  0  0  0  0  0  0  0  0  0  0  0
    9.5765    0.1335   -3.7347 C   0  0  0  0  0  0  0  0  0  0  0  0
    9.5982   -0.8192   -3.1904 H   0  0  0  0  0  0  0  0  0  0  0  0
   10.1405   -0.0073   -4.6611 H   0  0  0  0  0  0  0  0  0  0  0  0
   10.1082    0.8681   -3.1217 H   0  0  0  0  0  0  0  0  0  0  0  0
   -1.0673   -0.7660   -0.6956 H   0  0  0  0  0  0  0  0  0  0  0  0
  1  6  2  0  0  0  0
  2  3  2  0  0  0  0
  2  1  1  0  0  0  0
  3  4  1  0  0  0  0
  4  9  1  0  0  0  0
  4  5  2  0  0  0  0
  5 10  1  0  0  0  0
  6  5  1  0  0  0  0
  6 31  1  0  0  0  0
  7  1  1  0  0  0  0
 11  3  1  0  0  0  0
 12 11  1  0  0  0  0
 13 14  2  0  0  0  0
 13 18  1  0  0  0  0
 14 15  1  0  0  0  0
 15 27  1  0  0  0  0
 15 16  2  0  0  0  0
 16 21  1  0  0  0  0
 17 16  1  0  0  0  0
 17 22  1  0  0  0  0
 18 17  2  0  0  0  0
 19 13  1  0  0  0  0
 20 14  1  0  0  0  0
 23 18  1  0  0  0  0
 23 24  1  0  0  0  0
 23 26  2  0  0  0  0
 24  8  1  0  0  0  0
 25 23  2  0  0  0  0
 27 28  1  0  0  0  0
 27 30  1  0  0  0  0
 29 27  1  0  0  0  0
M  RAD  3   2   2  11   2  12   3
M  END
