Coordinates from ORCA-job Ph-N2-X-OTs-B3LYPG-6-31G_dp-scan-d09-49-n400
 OpenBabel08281821093D

 31 31  0  0  0  0  0  0  0  0999 V2000
   -0.4828    0.4343   -1.3904 C   0  0  0  0  0  0  0  0  0  0  0  0
    0.6817    1.0507   -1.8374 C   0  0  0  0  0  0  0  0  0  0  0  0
    0.5434    2.2338   -2.5816 C   0  0  0  0  0  0  0  0  0  0  0  0
   -0.7018    2.8047   -2.8762 C   0  0  0  0  0  0  0  0  0  0  0  0
   -1.8481    2.1657   -2.4183 C   0  0  0  0  0  0  0  0  0  0  0  0
   -1.7365    0.9838   -1.6784 C   0  0  0  0  0  0  0  0  0  0  0  0
   -0.4078   -0.4852   -0.8197 H   0  0  0  0  0  0  0  0  0  0  0  0
    1.6704    0.6557   -1.6385 H   0  0  0  0  0  0  0  0  0  0  0  0
   -0.7512    3.7213   -3.4532 H   0  0  0  0  0  0  0  0  0  0  0  0
   -2.8241    2.5846   -2.6379 H   0  0  0  0  0  0  0  0  0  0  0  0
    1.6736    2.9030   -3.0689 N   0  0  0  0  0  0  0  0  0  0  0  0
    2.8099    2.9360   -3.2183 N   0  0  0  0  0  0  0  0  0  0  0  0
    5.9707    1.2605   -5.0287 C   0  0  0  0  0  0  0  0  0  0  0  0
    7.3099    1.4669   -5.3567 C   0  0  0  0  0  0  0  0  0  0  0  0
    8.3395    0.9268   -4.5734 C   0  0  0  0  0  0  0  0  0  0  0  0
    7.9915    0.1696   -3.4457 C   0  0  0  0  0  0  0  0  0  0  0  0
    6.6575   -0.0468   -3.1059 C   0  0  0  0  0  0  0  0  0  0  0  0
    5.6513    0.5057   -3.8997 C   0  0  0  0  0  0  0  0  0  0  0  0
    5.1738    1.6644   -5.6431 H   0  0  0  0  0  0  0  0  0  0  0  0
    7.5600    2.0518   -6.2386 H   0  0  0  0  0  0  0  0  0  0  0  0
    8.7762   -0.2599   -2.8283 H   0  0  0  0  0  0  0  0  0  0  0  0
    6.3911   -0.6465   -2.2421 H   0  0  0  0  0  0  0  0  0  0  0  0
    3.9330    0.2585   -3.4471 S   0  0  0  0  0  0  0  0  0  0  0  0
    3.8321   -1.0675   -2.8172 O   0  0  0  0  0  0  0  0  0  0  0  0
    3.1156    0.5330   -4.6457 O   0  0  0  0  0  0  0  0  0  0  0  0
    3.6514    1.3433   -2.3615 O   0  0  0  0  0  0  0  0  0  0  0  0
    9.7871    1.1276   -4.9549 C   0  0  0  0  0  0  0  0  0  0  0  0
   10.1078    0.3824   -5.6939 H   0  0  0  0  0  0  0  0  0  0  0  0
    9.9514    2.1144   -5.3989 H   0  0  0  0  0  0  0  0  0  0  0  0
   10.4468    1.0317   -4.0874 H   0  0  0  0  0  0  0  0  0  0  0  0
   -2.6342    0.4867   -1.3242 H   0  0  0  0  0  0  0  0  0  0  0  0
  1  7  1  0  0  0  0
  2  8  1  0  0  0  0
  2  1  2  0  0  0  0
  3  2  1  0  0  0  0
  4  3  2  0  0  0  0
  4  5  1  0  0  0  0
  5  6  2  0  0  0  0
  6  1  1  0  0  0  0
  6 31  1  0  0  0  0
  9  4  1  0  0  0  0
 10  5  1  0  0  0  0
 11  3  1  0  0  0  0
 12 11  2  0  0  0  0
 13 18  1  0  0  0  0
 14 13  2  0  0  0  0
 14 15  1  0  0  0  0
 15 16  2  0  0  0  0
 16 17  1  0  0  0  0
 16 21  1  0  0  0  0
 17 22  1  0  0  0  0
 18 23  1  0  0  0  0
 18 17  2  0  0  0  0
 19 13  1  0  0  0  0
 20 14  1  0  0  0  0
 23 24  2  0  0  0  0
 23 26  1  0  0  0  0
 25 23  2  0  0  0  0
 27 15  1  0  0  0  0
 27 30  1  0  0  0  0
 28 27  1  0  0  0  0
 29 27  1  0  0  0  0
M  RAD  2  12   2  26   2
M  END
