Coordinates from ORCA-job Ph-N2-X-OTs-B3LYPG-6-31G_dp-scan-d09-49-n400
 OpenBabel08281821093D

 31 31  0  0  0  0  0  0  0  0999 V2000
   -0.1959    1.0328   -0.8445 C   0  0  0  0  0  0  0  0  0  0  0  0
    0.8270    1.0762   -1.7879 C   0  0  0  0  0  0  0  0  0  0  0  0
    0.6896    1.9624   -2.8682 C   0  0  0  0  0  0  0  0  0  0  0  0
   -0.4282    2.7977   -3.0046 C   0  0  0  0  0  0  0  0  0  0  0  0
   -1.4433    2.7271   -2.0569 C   0  0  0  0  0  0  0  0  0  0  0  0
   -1.3256    1.8459   -0.9782 C   0  0  0  0  0  0  0  0  0  0  0  0
   -0.1097    0.3556   -0.0006 H   0  0  0  0  0  0  0  0  0  0  0  0
    1.7083    0.4570   -1.7051 H   0  0  0  0  0  0  0  0  0  0  0  0
   -0.4851    3.4745   -3.8502 H   0  0  0  0  0  0  0  0  0  0  0  0
   -2.3202    3.3587   -2.1557 H   0  0  0  0  0  0  0  0  0  0  0  0
    1.6700    2.0938   -3.8664 N   0  0  0  0  0  0  0  0  0  0  0  0
    2.6244    1.6007   -4.3145 N   0  0  0  0  0  0  0  0  0  0  0  0
    5.9111    0.9241   -5.3174 C   0  0  0  0  0  0  0  0  0  0  0  0
    7.1505    1.5608   -5.2538 C   0  0  0  0  0  0  0  0  0  0  0  0
    8.0657    1.2661   -4.2343 C   0  0  0  0  0  0  0  0  0  0  0  0
    7.7072    0.3102   -3.2714 C   0  0  0  0  0  0  0  0  0  0  0  0
    6.4735   -0.3342   -3.3205 C   0  0  0  0  0  0  0  0  0  0  0  0
    5.5777   -0.0178   -4.3442 C   0  0  0  0  0  0  0  0  0  0  0  0
    5.2094    1.1388   -6.1158 H   0  0  0  0  0  0  0  0  0  0  0  0
    7.4141    2.2938   -6.0122 H   0  0  0  0  0  0  0  0  0  0  0  0
    8.4076    0.0647   -2.4768 H   0  0  0  0  0  0  0  0  0  0  0  0
    6.2054   -1.0872   -2.5872 H   0  0  0  0  0  0  0  0  0  0  0  0
    3.9798   -0.8301   -4.4017 S   0  0  0  0  0  0  0  0  0  0  0  0
    4.1320   -2.1484   -3.7778 O   0  0  0  0  0  0  0  0  0  0  0  0
    3.4765   -0.7217   -5.7746 O   0  0  0  0  0  0  0  0  0  0  0  0
    3.0755    0.0493   -3.4277 O   0  0  0  0  0  0  0  0  0  0  0  0
    9.4199    1.9339   -4.1893 C   0  0  0  0  0  0  0  0  0  0  0  0
   10.1890    1.2949   -4.6405 H   0  0  0  0  0  0  0  0  0  0  0  0
    9.4182    2.8799   -4.7377 H   0  0  0  0  0  0  0  0  0  0  0  0
    9.7320    2.1370   -3.1604 H   0  0  0  0  0  0  0  0  0  0  0  0
   -2.1167    1.7945   -0.2356 H   0  0  0  0  0  0  0  0  0  0  0  0
  1  7  1  0  0  0  0
  2  8  1  0  0  0  0
  2  1  2  0  0  0  0
  3  2  1  0  0  0  0
  4  3  2  0  0  0  0
  4  5  1  0  0  0  0
  5  6  2  0  0  0  0
  6  1  1  0  0  0  0
  6 31  1  0  0  0  0
  9  4  1  0  0  0  0
 10  5  1  0  0  0  0
 11  3  1  0  0  0  0
 12 11  2  0  0  0  0
 13 14  2  0  0  0  0
 13 18  1  0  0  0  0
 14 15  1  0  0  0  0
 15 27  1  0  0  0  0
 15 16  2  0  0  0  0
 16 21  1  0  0  0  0
 17 16  1  0  0  0  0
 17 22  1  0  0  0  0
 18 17  2  0  0  0  0
 19 13  1  0  0  0  0
 20 14  1  0  0  0  0
 23 18  1  0  0  0  0
 23 24  2  0  0  0  0
 23 26  1  0  0  0  0
 25 23  2  0  0  0  0
 27 30  1  0  0  0  0
 28 27  1  0  0  0  0
 29 27  1  0  0  0  0
M  RAD  2  12   2  26   2
M  END
