Coordinates from ORCA-job Ph-N2-X-OTs-B3LYPG-6-31G_dp-scan-d09-49-n400
 OpenBabel08281821093D

 31 31  0  0  0  0  0  0  0  0999 V2000
   -0.0801    1.2228   -0.7270 C   0  0  0  0  0  0  0  0  0  0  0  0
    0.9378    1.3081   -1.6730 C   0  0  0  0  0  0  0  0  0  0  0  0
    0.6735    1.9991   -2.8648 C   0  0  0  0  0  0  0  0  0  0  0  0
   -0.5614    2.6147   -3.1079 C   0  0  0  0  0  0  0  0  0  0  0  0
   -1.5707    2.4971   -2.1580 C   0  0  0  0  0  0  0  0  0  0  0  0
   -1.3289    1.8031   -0.9689 C   0  0  0  0  0  0  0  0  0  0  0  0
    0.1038    0.6950    0.2032 H   0  0  0  0  0  0  0  0  0  0  0  0
    1.9103    0.8708   -1.5010 H   0  0  0  0  0  0  0  0  0  0  0  0
   -0.7129    3.1564   -4.0350 H   0  0  0  0  0  0  0  0  0  0  0  0
   -2.5385    2.9525   -2.3397 H   0  0  0  0  0  0  0  0  0  0  0  0
    1.6504    2.1658   -3.8642 N   0  0  0  0  0  0  0  0  0  0  0  0
    2.6200    1.6927   -4.3012 N   0  0  0  0  0  0  0  0  0  0  0  0
    5.9077    1.0160   -5.2766 C   0  0  0  0  0  0  0  0  0  0  0  0
    7.1669    1.6098   -5.1941 C   0  0  0  0  0  0  0  0  0  0  0  0
    8.0937    1.2127   -4.2209 C   0  0  0  0  0  0  0  0  0  0  0  0
    7.7260    0.1974   -3.3250 C   0  0  0  0  0  0  0  0  0  0  0  0
    6.4717   -0.4046   -3.3928 C   0  0  0  0  0  0  0  0  0  0  0  0
    5.5650    0.0143   -4.3686 C   0  0  0  0  0  0  0  0  0  0  0  0
    5.1973    1.3112   -6.0409 H   0  0  0  0  0  0  0  0  0  0  0  0
    7.4362    2.3904   -5.9012 H   0  0  0  0  0  0  0  0  0  0  0  0
    8.4348   -0.1286   -2.5677 H   0  0  0  0  0  0  0  0  0  0  0  0
    6.1957   -1.2022   -2.7114 H   0  0  0  0  0  0  0  0  0  0  0  0
    3.9390   -0.7384   -4.4463 S   0  0  0  0  0  0  0  0  0  0  0  0
    4.0492   -2.0875   -3.8825 O   0  0  0  0  0  0  0  0  0  0  0  0
    3.4297   -0.5549   -5.8093 O   0  0  0  0  0  0  0  0  0  0  0  0
    3.0727    0.1350   -3.4310 O   0  0  0  0  0  0  0  0  0  0  0  0
    9.4677    1.8367   -4.1564 C   0  0  0  0  0  0  0  0  0  0  0  0
   10.2096    1.2088   -4.6651 H   0  0  0  0  0  0  0  0  0  0  0  0
    9.4843    2.8178   -4.6388 H   0  0  0  0  0  0  0  0  0  0  0  0
    9.8036    1.9597   -3.1221 H   0  0  0  0  0  0  0  0  0  0  0  0
   -2.1147    1.7194   -0.2240 H   0  0  0  0  0  0  0  0  0  0  0  0
  1  7  1  0  0  0  0
  2  8  1  0  0  0  0
  2  1  2  0  0  0  0
  3  2  1  0  0  0  0
  4  3  2  0  0  0  0
  4  5  1  0  0  0  0
  5  6  2  0  0  0  0
  6  1  1  0  0  0  0
  6 31  1  0  0  0  0
  9  4  1  0  0  0  0
 10  5  1  0  0  0  0
 11  3  1  0  0  0  0
 12 11  2  0  0  0  0
 13 14  2  0  0  0  0
 13 18  1  0  0  0  0
 14 15  1  0  0  0  0
 15 27  1  0  0  0  0
 15 16  2  0  0  0  0
 16 21  1  0  0  0  0
 17 16  1  0  0  0  0
 17 22  1  0  0  0  0
 18 17  2  0  0  0  0
 19 13  1  0  0  0  0
 20 14  1  0  0  0  0
 23 18  1  0  0  0  0
 23 24  2  0  0  0  0
 23 26  1  0  0  0  0
 25 23  2  0  0  0  0
 27 30  1  0  0  0  0
 28 27  1  0  0  0  0
 29 27  1  0  0  0  0
M  RAD  2  12   2  26   2
M  END
