Coordinates from ORCA-job Ph-N2-X-OTs-B3LYPG-6-31G_dp-scan-d09-49-n400
 OpenBabel08281821093D

 31 31  0  0  0  0  0  0  0  0999 V2000
   -0.6014    0.5981   -1.2580 C   0  0  0  0  0  0  0  0  0  0  0  0
    0.6098    0.9999   -1.8134 C   0  0  0  0  0  0  0  0  0  0  0  0
    0.6039    2.1435   -2.6291 C   0  0  0  0  0  0  0  0  0  0  0  0
   -0.5602    2.8802   -2.8868 C   0  0  0  0  0  0  0  0  0  0  0  0
   -1.7567    2.4549   -2.3212 C   0  0  0  0  0  0  0  0  0  0  0  0
   -1.7751    1.3161   -1.5095 C   0  0  0  0  0  0  0  0  0  0  0  0
   -0.6275   -0.2853   -0.6284 H   0  0  0  0  0  0  0  0  0  0  0  0
    1.5394    0.4699   -1.6480 H   0  0  0  0  0  0  0  0  0  0  0  0
   -0.5098    3.7577   -3.5219 H   0  0  0  0  0  0  0  0  0  0  0  0
   -2.6710    3.0065   -2.5124 H   0  0  0  0  0  0  0  0  0  0  0  0
    1.7806    2.6085   -3.2346 N   0  0  0  0  0  0  0  0  0  0  0  0
    2.8986    2.4211   -3.4424 N   0  0  0  0  0  0  0  0  0  0  0  0
    5.9360    1.0981   -5.0985 C   0  0  0  0  0  0  0  0  0  0  0  0
    7.2507    1.4930   -5.3460 C   0  0  0  0  0  0  0  0  0  0  0  0
    8.3005    1.0782   -4.5163 C   0  0  0  0  0  0  0  0  0  0  0  0
    7.9995    0.2513   -3.4231 C   0  0  0  0  0  0  0  0  0  0  0  0
    6.6922   -0.1524   -3.1636 C   0  0  0  0  0  0  0  0  0  0  0  0
    5.6631    0.2791   -4.0034 C   0  0  0  0  0  0  0  0  0  0  0  0
    5.1257    1.4057   -5.7500 H   0  0  0  0  0  0  0  0  0  0  0  0
    7.4658    2.1287   -6.2016 H   0  0  0  0  0  0  0  0  0  0  0  0
    8.8013   -0.0845   -2.7703 H   0  0  0  0  0  0  0  0  0  0  0  0
    6.4647   -0.8059   -2.3281 H   0  0  0  0  0  0  0  0  0  0  0  0
    3.9739   -0.2157   -3.6588 S   0  0  0  0  0  0  0  0  0  0  0  0
    4.0209   -1.5529   -3.0536 O   0  0  0  0  0  0  0  0  0  0  0  0
    3.1958   -0.0096   -4.8923 O   0  0  0  0  0  0  0  0  0  0  0  0
    3.4916    0.7954   -2.5575 O   0  0  0  0  0  0  0  0  0  0  0  0
    9.7265    1.4811   -4.8086 C   0  0  0  0  0  0  0  0  0  0  0  0
   10.2497    0.6990   -5.3736 H   0  0  0  0  0  0  0  0  0  0  0  0
    9.7693    2.3978   -5.4041 H   0  0  0  0  0  0  0  0  0  0  0  0
   10.2927    1.6471   -3.8870 H   0  0  0  0  0  0  0  0  0  0  0  0
   -2.7111    0.9859   -1.0697 H   0  0  0  0  0  0  0  0  0  0  0  0
  1  7  1  0  0  0  0
  2  8  1  0  0  0  0
  2  1  2  0  0  0  0
  3  2  1  0  0  0  0
  4  3  2  0  0  0  0
  4  5  1  0  0  0  0
  5  6  2  0  0  0  0
  6  1  1  0  0  0  0
  6 31  1  0  0  0  0
  9  4  1  0  0  0  0
 10  5  1  0  0  0  0
 11  3  1  0  0  0  0
 12 11  2  0  0  0  0
 13 18  1  0  0  0  0
 14 13  2  0  0  0  0
 14 15  1  0  0  0  0
 15 16  2  0  0  0  0
 16 17  1  0  0  0  0
 16 21  1  0  0  0  0
 17 22  1  0  0  0  0
 18 23  1  0  0  0  0
 18 17  2  0  0  0  0
 19 13  1  0  0  0  0
 20 14  1  0  0  0  0
 23 24  2  0  0  0  0
 23 26  1  0  0  0  0
 25 23  2  0  0  0  0
 27 15  1  0  0  0  0
 27 30  1  0  0  0  0
 28 27  1  0  0  0  0
 29 27  1  0  0  0  0
M  RAD  2  12   2  26   2
M  END
