Coordinates from ORCA-job Ph-N2-X-OTs-B3LYPG-6-31G_dp-scan-d09-49-n400
 OpenBabel08281821093D

 31 31  0  0  0  0  0  0  0  0999 V2000
    0.1189    0.1925   -1.4530 C   0  0  0  0  0  0  0  0  0  0  0  0
    0.7976    0.9135   -2.4349 C   0  0  0  0  0  0  0  0  0  0  0  0
    0.2185    2.1306   -2.8265 C   0  0  0  0  0  0  0  0  0  0  0  0
   -0.9837    2.6298   -2.3025 C   0  0  0  0  0  0  0  0  0  0  0  0
   -1.6219    1.8884   -1.3174 C   0  0  0  0  0  0  0  0  0  0  0  0
   -1.0698    0.6717   -0.8963 C   0  0  0  0  0  0  0  0  0  0  0  0
    0.5296   -0.7570   -1.1263 H   0  0  0  0  0  0  0  0  0  0  0  0
    1.7239    0.5378   -2.8976 H   0  0  0  0  0  0  0  0  0  0  0  0
   -1.3833    3.5729   -2.6575 H   0  0  0  0  0  0  0  0  0  0  0  0
   -2.5477    2.2503   -0.8842 H   0  0  0  0  0  0  0  0  0  0  0  0
    0.8466    2.8954   -3.8154 N   0  0  0  0  0  0  0  0  0  0  0  0
    1.7073    3.2493   -4.4655 N   0  0  0  0  0  0  0  0  0  0  0  0
    6.3468    1.3472   -5.4636 C   0  0  0  0  0  0  0  0  0  0  0  0
    7.7356    1.2528   -5.3695 C   0  0  0  0  0  0  0  0  0  0  0  0
    8.3511    0.7314   -4.2244 C   0  0  0  0  0  0  0  0  0  0  0  0
    7.5353    0.3008   -3.1663 C   0  0  0  0  0  0  0  0  0  0  0  0
    6.1481    0.3873   -3.2459 C   0  0  0  0  0  0  0  0  0  0  0  0
    5.5596    0.9147   -4.3976 C   0  0  0  0  0  0  0  0  0  0  0  0
    5.8686    1.7382   -6.3550 H   0  0  0  0  0  0  0  0  0  0  0  0
    8.3505    1.5862   -6.2018 H   0  0  0  0  0  0  0  0  0  0  0  0
    7.9948   -0.1106   -2.2705 H   0  0  0  0  0  0  0  0  0  0  0  0
    5.5193    0.0386   -2.4341 H   0  0  0  0  0  0  0  0  0  0  0  0
    3.7759    1.0699   -4.5006 S   0  0  0  0  0  0  0  0  0  0  0  0
    3.2039   -0.0798   -3.7417 O   0  0  0  0  0  0  0  0  0  0  0  0
    3.4089    1.1542   -5.9255 O   0  0  0  0  0  0  0  0  0  0  0  0
    3.4783    2.3750   -3.7483 O   0  0  0  0  0  0  0  0  0  0  0  0
    9.8537    0.6084   -4.1340 C   0  0  0  0  0  0  0  0  0  0  0  0
   10.1732   -0.4343   -4.2519 H   0  0  0  0  0  0  0  0  0  0  0  0
   10.3520    1.1949   -4.9106 H   0  0  0  0  0  0  0  0  0  0  0  0
   10.2252    0.9497   -3.1619 H   0  0  0  0  0  0  0  0  0  0  0  0
   -1.5776    0.0912   -0.1318 H   0  0  0  0  0  0  0  0  0  0  0  0
  1  7  1  0  0  0  0
  1  6  2  0  0  0  0
  2  1  1  0  0  0  0
  3  2  2  0  0  0  0
  3  4  1  0  0  0  0
  4  5  2  0  0  0  0
  5  6  1  0  0  0  0
  5 10  1  0  0  0  0
  6 31  1  0  0  0  0
  8  2  1  0  0  0  0
  9  4  1  0  0  0  0
 11  3  1  0  0  0  0
 12 11  1  0  0  0  0
 13 14  2  0  0  0  0
 13 18  1  0  0  0  0
 14 15  1  0  0  0  0
 15 27  1  0  0  0  0
 15 16  2  0  0  0  0
 16 21  1  0  0  0  0
 17 16  1  0  0  0  0
 17 22  1  0  0  0  0
 18 17  2  0  0  0  0
 19 13  1  0  0  0  0
 20 14  1  0  0  0  0
 23 18  1  0  0  0  0
 23 26  2  0  0  0  0
 23 24  1  0  0  0  0
 25 23  2  0  0  0  0
 27 30  1  0  0  0  0
 28 27  1  0  0  0  0
 29 27  1  0  0  0  0
M  RAD  3  11   2  12   3  24   2
M  END
