Coordinates from ORCA-job Ph-N2-X-OTs-B3LYPG-6-31G_dp-scan-d09-49-n400
 OpenBabel08281821093D

 31 31  0  0  0  0  0  0  0  0999 V2000
    0.4590   -0.0741   -2.0987 C   0  0  0  0  0  0  0  0  0  0  0  0
    0.9806    0.9865   -2.8639 C   0  0  0  0  0  0  0  0  0  0  0  0
    0.2763    2.1863   -2.6659 C   0  0  0  0  0  0  0  0  0  0  0  0
   -0.8386    2.4053   -1.8220 C   0  0  0  0  0  0  0  0  0  0  0  0
   -1.2896    1.3148   -1.1056 C   0  0  0  0  0  0  0  0  0  0  0  0
   -0.6365    0.0741   -1.2493 C   0  0  0  0  0  0  0  0  0  0  0  0
    0.9325   -1.0499   -2.1782 H   0  0  0  0  0  0  0  0  0  0  0  0
    2.0699    0.8311   -3.7009 H   0  0  0  0  0  0  0  0  0  0  0  0
   -1.3076    3.3812   -1.7458 H   0  0  0  0  0  0  0  0  0  0  0  0
   -2.1413    1.4154   -0.4412 H   0  0  0  0  0  0  0  0  0  0  0  0
    0.7196    3.2848   -3.3914 N   0  0  0  0  0  0  0  0  0  0  0  0
    1.1292    4.1289   -3.9934 N   0  0  0  0  0  0  0  0  0  0  0  0
    6.2250    0.6592   -5.5019 C   0  0  0  0  0  0  0  0  0  0  0  0
    7.5364    0.2745   -5.2266 C   0  0  0  0  0  0  0  0  0  0  0  0
    8.1332    0.5627   -3.9918 C   0  0  0  0  0  0  0  0  0  0  0  0
    7.3808    1.2603   -3.0353 C   0  0  0  0  0  0  0  0  0  0  0  0
    6.0685    1.6496   -3.2949 C   0  0  0  0  0  0  0  0  0  0  0  0
    5.4948    1.3419   -4.5291 C   0  0  0  0  0  0  0  0  0  0  0  0
    5.7717    0.4534   -6.4654 H   0  0  0  0  0  0  0  0  0  0  0  0
    8.1092   -0.2507   -5.9870 H   0  0  0  0  0  0  0  0  0  0  0  0
    7.8318    1.5089   -2.0776 H   0  0  0  0  0  0  0  0  0  0  0  0
    5.4942    2.2060   -2.5622 H   0  0  0  0  0  0  0  0  0  0  0  0
    3.8003    1.8153   -4.8719 S   0  0  0  0  0  0  0  0  0  0  0  0
    2.9756    0.5945   -4.3871 O   0  0  0  0  0  0  0  0  0  0  0  0
    3.6794    2.0019   -6.3230 O   0  0  0  0  0  0  0  0  0  0  0  0
    3.4897    2.9827   -4.0069 O   0  0  0  0  0  0  0  0  0  0  0  0
    9.5462    0.1222   -3.6902 C   0  0  0  0  0  0  0  0  0  0  0  0
    9.5547   -0.8217   -3.1305 H   0  0  0  0  0  0  0  0  0  0  0  0
   10.1204   -0.0370   -4.6073 H   0  0  0  0  0  0  0  0  0  0  0  0
   10.0755    0.8630   -3.0823 H   0  0  0  0  0  0  0  0  0  0  0  0
   -1.0016   -0.7800   -0.6847 H   0  0  0  0  0  0  0  0  0  0  0  0
  1  6  2  0  0  0  0
  2  3  2  0  0  0  0
  2  1  1  0  0  0  0
  3  4  1  0  0  0  0
  4  9  1  0  0  0  0
  4  5  2  0  0  0  0
  5 10  1  0  0  0  0
  6  5  1  0  0  0  0
  6 31  1  0  0  0  0
  7  1  1  0  0  0  0
 11  3  1  0  0  0  0
 12 11  1  0  0  0  0
 13 14  2  0  0  0  0
 13 18  1  0  0  0  0
 14 15  1  0  0  0  0
 15 27  1  0  0  0  0
 15 16  2  0  0  0  0
 16 21  1  0  0  0  0
 17 16  1  0  0  0  0
 17 22  1  0  0  0  0
 18 17  2  0  0  0  0
 19 13  1  0  0  0  0
 20 14  1  0  0  0  0
 23 18  1  0  0  0  0
 23 24  1  0  0  0  0
 23 26  2  0  0  0  0
 24  8  1  0  0  0  0
 25 23  2  0  0  0  0
 27 28  1  0  0  0  0
 27 30  1  0  0  0  0
 29 27  1  0  0  0  0
M  RAD  3   2   2  11   2  12   3
M  END
