Coordinates from ORCA-job Ph-N2-X-OTs-B3LYPG-6-31G_dp-scan-d09-49-n400
 OpenBabel08281821093D

 31 31  0  0  0  0  0  0  0  0999 V2000
    0.2731   -0.0691   -1.8891 C   0  0  0  0  0  0  0  0  0  0  0  0
    0.9105    0.9256   -2.6407 C   0  0  0  0  0  0  0  0  0  0  0  0
    0.2196    2.1474   -2.6887 C   0  0  0  0  0  0  0  0  0  0  0  0
   -1.0155    2.4259   -2.0705 C   0  0  0  0  0  0  0  0  0  0  0  0
   -1.5949    1.4030   -1.3397 C   0  0  0  0  0  0  0  0  0  0  0  0
   -0.9475    0.1582   -1.2518 C   0  0  0  0  0  0  0  0  0  0  0  0
    0.7479   -1.0428   -1.8085 H   0  0  0  0  0  0  0  0  0  0  0  0
    1.9440    0.7630   -3.2256 H   0  0  0  0  0  0  0  0  0  0  0  0
   -1.4809    3.4013   -2.1654 H   0  0  0  0  0  0  0  0  0  0  0  0
   -2.5450    1.5639   -0.8426 H   0  0  0  0  0  0  0  0  0  0  0  0
    0.8111    3.1694   -3.4236 N   0  0  0  0  0  0  0  0  0  0  0  0
    1.4561    3.8734   -4.0084 N   0  0  0  0  0  0  0  0  0  0  0  0
    6.2492    0.7570   -5.4786 C   0  0  0  0  0  0  0  0  0  0  0  0
    7.5935    0.4095   -5.3452 C   0  0  0  0  0  0  0  0  0  0  0  0
    8.2761    0.6043   -4.1377 C   0  0  0  0  0  0  0  0  0  0  0  0
    7.5767    1.1717   -3.0615 C   0  0  0  0  0  0  0  0  0  0  0  0
    6.2341    1.5220   -3.1794 C   0  0  0  0  0  0  0  0  0  0  0  0
    5.5736    1.3077   -4.3907 C   0  0  0  0  0  0  0  0  0  0  0  0
    5.7227    0.6214   -6.4171 H   0  0  0  0  0  0  0  0  0  0  0  0
    8.1220   -0.0149   -6.1954 H   0  0  0  0  0  0  0  0  0  0  0  0
    8.0943    1.3474   -2.1212 H   0  0  0  0  0  0  0  0  0  0  0  0
    5.7026    1.9781   -2.3510 H   0  0  0  0  0  0  0  0  0  0  0  0
    3.8316    1.7071   -4.5508 S   0  0  0  0  0  0  0  0  0  0  0  0
    3.0997    0.5389   -3.9089 O   0  0  0  0  0  0  0  0  0  0  0  0
    3.5390    1.8536   -5.9871 O   0  0  0  0  0  0  0  0  0  0  0  0
    3.6217    2.9456   -3.7263 O   0  0  0  0  0  0  0  0  0  0  0  0
    9.7239    0.1996   -3.9889 C   0  0  0  0  0  0  0  0  0  0  0  0
    9.8115   -0.7846   -3.5113 H   0  0  0  0  0  0  0  0  0  0  0  0
   10.2238    0.1370   -4.9595 H   0  0  0  0  0  0  0  0  0  0  0  0
   10.2774    0.9100   -3.3667 H   0  0  0  0  0  0  0  0  0  0  0  0
   -1.4128   -0.6399   -0.6801 H   0  0  0  0  0  0  0  0  0  0  0  0
  1  7  1  0  0  0  0
  1  6  2  0  0  0  0
  2  1  1  0  0  0  0
  3  2  2  0  0  0  0
  3  4  1  0  0  0  0
  4  5  2  0  0  0  0
  5  6  1  0  0  0  0
  5 10  1  0  0  0  0
  6 31  1  0  0  0  0
  8  2  1  0  0  0  0
  9  4  1  0  0  0  0
 11  3  1  0  0  0  0
 12 11  1  0  0  0  0
 13 14  2  0  0  0  0
 13 18  1  0  0  0  0
 14 15  1  0  0  0  0
 15 27  1  0  0  0  0
 15 16  2  0  0  0  0
 16 21  1  0  0  0  0
 17 16  1  0  0  0  0
 17 22  1  0  0  0  0
 18 17  2  0  0  0  0
 19 13  1  0  0  0  0
 20 14  1  0  0  0  0
 23 18  1  0  0  0  0
 23 24  2  0  0  0  0
 23 26  1  0  0  0  0
 25 23  2  0  0  0  0
 27 28  1  0  0  0  0
 27 30  1  0  0  0  0
 29 27  1  0  0  0  0
M  RAD  3  11   2  12   3  26   2
M  END
