Coordinates from ORCA-job Ph-N2-X-OTs-B3LYPG-6-31G_dp-scan-d09-49-n400
 OpenBabel08281821093D

 31 31  0  0  0  0  0  0  0  0999 V2000
   -0.5323    0.7416   -1.1088 C   0  0  0  0  0  0  0  0  0  0  0  0
    0.6113    0.9425   -1.8768 C   0  0  0  0  0  0  0  0  0  0  0  0
    0.6275    2.0417   -2.7517 C   0  0  0  0  0  0  0  0  0  0  0  0
   -0.4552    2.9257   -2.8608 C   0  0  0  0  0  0  0  0  0  0  0  0
   -1.5858    2.7027   -2.0830 C   0  0  0  0  0  0  0  0  0  0  0  0
   -1.6226    1.6117   -1.2094 C   0  0  0  0  0  0  0  0  0  0  0  0
   -0.5711   -0.1032   -0.4284 H   0  0  0  0  0  0  0  0  0  0  0  0
    1.4709    0.2870   -1.8266 H   0  0  0  0  0  0  0  0  0  0  0  0
   -0.3938    3.7609   -3.5501 H   0  0  0  0  0  0  0  0  0  0  0  0
   -2.4350    3.3743   -2.1577 H   0  0  0  0  0  0  0  0  0  0  0  0
    1.7296    2.3219   -3.5760 N   0  0  0  0  0  0  0  0  0  0  0  0
    2.7737    1.9531   -3.9205 N   0  0  0  0  0  0  0  0  0  0  0  0
    5.9494    0.9475   -5.2412 C   0  0  0  0  0  0  0  0  0  0  0  0
    7.2297    1.4920   -5.3399 C   0  0  0  0  0  0  0  0  0  0  0  0
    8.2170    1.2003   -4.3894 C   0  0  0  0  0  0  0  0  0  0  0  0
    7.8885    0.3432   -3.3279 C   0  0  0  0  0  0  0  0  0  0  0  0
    6.6148   -0.2085   -3.2152 C   0  0  0  0  0  0  0  0  0  0  0  0
    5.6478    0.1020   -4.1738 C   0  0  0  0  0  0  0  0  0  0  0  0
    5.1902    1.1603   -5.9858 H   0  0  0  0  0  0  0  0  0  0  0  0
    7.4679    2.1491   -6.1727 H   0  0  0  0  0  0  0  0  0  0  0  0
    8.6431    0.1011   -2.5835 H   0  0  0  0  0  0  0  0  0  0  0  0
    6.3679   -0.8847   -2.4039 H   0  0  0  0  0  0  0  0  0  0  0  0
    4.0004   -0.5896   -4.0233 S   0  0  0  0  0  0  0  0  0  0  0  0
    4.1249   -1.8896   -3.3545 O   0  0  0  0  0  0  0  0  0  0  0  0
    3.3630   -0.5043   -5.3437 O   0  0  0  0  0  0  0  0  0  0  0  0
    3.2678    0.3841   -3.0124 O   0  0  0  0  0  0  0  0  0  0  0  0
    9.6117    1.7654   -4.5204 C   0  0  0  0  0  0  0  0  0  0  0  0
   10.2809    1.0515   -5.0171 H   0  0  0  0  0  0  0  0  0  0  0  0
    9.6173    2.6848   -5.1129 H   0  0  0  0  0  0  0  0  0  0  0  0
   10.0465    1.9885   -3.5414 H   0  0  0  0  0  0  0  0  0  0  0  0
   -2.5068    1.4381   -0.6032 H   0  0  0  0  0  0  0  0  0  0  0  0
  1  7  1  0  0  0  0
  2  8  1  0  0  0  0
  2  1  2  0  0  0  0
  3  2  1  0  0  0  0
  4  3  2  0  0  0  0
  4  5  1  0  0  0  0
  5  6  2  0  0  0  0
  6  1  1  0  0  0  0
  6 31  1  0  0  0  0
  9  4  1  0  0  0  0
 10  5  1  0  0  0  0
 11  3  1  0  0  0  0
 12 11  2  0  0  0  0
 13 18  1  0  0  0  0
 14 13  2  0  0  0  0
 14 15  1  0  0  0  0
 15 16  2  0  0  0  0
 16 17  1  0  0  0  0
 16 21  1  0  0  0  0
 17 22  1  0  0  0  0
 18 23  1  0  0  0  0
 18 17  2  0  0  0  0
 19 13  1  0  0  0  0
 20 14  1  0  0  0  0
 23 24  2  0  0  0  0
 23 26  1  0  0  0  0
 25 23  2  0  0  0  0
 27 15  1  0  0  0  0
 27 30  1  0  0  0  0
 28 27  1  0  0  0  0
 29 27  1  0  0  0  0
M  RAD  2  12   2  26   2
M  END
