Coordinates from ORCA-job Ph-N2-X-OTs-B3LYPG-6-31G_dp-scan-d09-49-n400
 OpenBabel08281821093D

 31 31  0  0  0  0  0  0  0  0999 V2000
    0.0632    0.2060   -1.4380 C   0  0  0  0  0  0  0  0  0  0  0  0
    0.7729    0.9127   -2.4078 C   0  0  0  0  0  0  0  0  0  0  0  0
    0.2191    2.1331   -2.8245 C   0  0  0  0  0  0  0  0  0  0  0  0
   -0.9901    2.6479   -2.3334 C   0  0  0  0  0  0  0  0  0  0  0  0
   -1.6609    1.9216   -1.3583 C   0  0  0  0  0  0  0  0  0  0  0  0
   -1.1335    0.7025   -0.9142 C   0  0  0  0  0  0  0  0  0  0  0  0
    0.4554   -0.7454   -1.0948 H   0  0  0  0  0  0  0  0  0  0  0  0
    1.7023    0.5231   -2.8415 H   0  0  0  0  0  0  0  0  0  0  0  0
   -1.3708    3.5922   -2.7056 H   0  0  0  0  0  0  0  0  0  0  0  0
   -2.5930    2.2973   -0.9512 H   0  0  0  0  0  0  0  0  0  0  0  0
    0.8763    2.8856   -3.8048 N   0  0  0  0  0  0  0  0  0  0  0  0
    1.7656    3.2143   -4.4320 N   0  0  0  0  0  0  0  0  0  0  0  0
    6.3383    1.3623   -5.4364 C   0  0  0  0  0  0  0  0  0  0  0  0
    7.7297    1.2887   -5.3662 C   0  0  0  0  0  0  0  0  0  0  0  0
    8.3714    0.7443   -4.2463 C   0  0  0  0  0  0  0  0  0  0  0  0
    7.5795    0.2693   -3.1893 C   0  0  0  0  0  0  0  0  0  0  0  0
    6.1898    0.3348   -3.2451 C   0  0  0  0  0  0  0  0  0  0  0  0
    5.5749    0.8857   -4.3716 C   0  0  0  0  0  0  0  0  0  0  0  0
    5.8404    1.7704   -6.3092 H   0  0  0  0  0  0  0  0  0  0  0  0
    8.3259    1.6564   -6.1976 H   0  0  0  0  0  0  0  0  0  0  0  0
    8.0595   -0.1601   -2.3129 H   0  0  0  0  0  0  0  0  0  0  0  0
    5.5791   -0.0478   -2.4348 H   0  0  0  0  0  0  0  0  0  0  0  0
    3.7877    1.0132   -4.4430 S   0  0  0  0  0  0  0  0  0  0  0  0
    3.2451   -0.1488   -3.6854 O   0  0  0  0  0  0  0  0  0  0  0  0
    3.3953    1.1104   -5.8607 O   0  0  0  0  0  0  0  0  0  0  0  0
    3.4826    2.3103   -3.6742 O   0  0  0  0  0  0  0  0  0  0  0  0
    9.8771    0.6437   -4.1826 C   0  0  0  0  0  0  0  0  0  0  0  0
   10.2117   -0.3888   -4.3410 H   0  0  0  0  0  0  0  0  0  0  0  0
   10.3535    1.2646   -4.9462 H   0  0  0  0  0  0  0  0  0  0  0  0
   10.2580    0.9580   -3.2051 H   0  0  0  0  0  0  0  0  0  0  0  0
   -1.6664    0.1334   -0.1584 H   0  0  0  0  0  0  0  0  0  0  0  0
  1  7  1  0  0  0  0
  1  6  2  0  0  0  0
  2  1  1  0  0  0  0
  3  2  2  0  0  0  0
  3  4  1  0  0  0  0
  4  5  2  0  0  0  0
  5 10  1  0  0  0  0
  5  6  1  0  0  0  0
  6 31  1  0  0  0  0
  8  2  1  0  0  0  0
  9  4  1  0  0  0  0
 11  3  1  0  0  0  0
 12 11  1  0  0  0  0
 13 14  2  0  0  0  0
 13 18  1  0  0  0  0
 14 15  1  0  0  0  0
 15 27  1  0  0  0  0
 15 16  2  0  0  0  0
 16 21  1  0  0  0  0
 17 16  1  0  0  0  0
 17 22  1  0  0  0  0
 18 17  2  0  0  0  0
 19 13  1  0  0  0  0
 20 14  1  0  0  0  0
 23 18  1  0  0  0  0
 23 24  2  0  0  0  0
 23 26  1  0  0  0  0
 25 23  2  0  0  0  0
 27 30  1  0  0  0  0
 28 27  1  0  0  0  0
 29 27  1  0  0  0  0
M  RAD  3  11   2  12   3  26   2
M  END
