Coordinates from ORCA-job Ph-N2-X-OTs-B3LYPG-6-31G_dp-scan-d09-49-n400
 OpenBabel08281821093D

 31 31  0  0  0  0  0  0  0  0999 V2000
    0.4990   -0.0674   -2.1256 C   0  0  0  0  0  0  0  0  0  0  0  0
    0.9894    1.0058   -2.9014 C   0  0  0  0  0  0  0  0  0  0  0  0
    0.2832    2.1937   -2.6417 C   0  0  0  0  0  0  0  0  0  0  0  0
   -0.7938    2.3993   -1.7432 C   0  0  0  0  0  0  0  0  0  0  0  0
   -1.2075    1.2958   -1.0264 C   0  0  0  0  0  0  0  0  0  0  0  0
   -0.5558    0.0602   -1.2240 C   0  0  0  0  0  0  0  0  0  0  0  0
    0.9671   -1.0432   -2.2391 H   0  0  0  0  0  0  0  0  0  0  0  0
    2.1461    0.8386   -3.8680 H   0  0  0  0  0  0  0  0  0  0  0  0
   -1.2614    3.3723   -1.6289 H   0  0  0  0  0  0  0  0  0  0  0  0
   -2.0271    1.3804   -0.3207 H   0  0  0  0  0  0  0  0  0  0  0  0
    0.6861    3.3086   -3.3664 N   0  0  0  0  0  0  0  0  0  0  0  0
    1.0478    4.1756   -3.9670 N   0  0  0  0  0  0  0  0  0  0  0  0
    6.2360    0.6587   -5.5314 C   0  0  0  0  0  0  0  0  0  0  0  0
    7.5332    0.2628   -5.2083 C   0  0  0  0  0  0  0  0  0  0  0  0
    8.0894    0.5521   -3.9549 C   0  0  0  0  0  0  0  0  0  0  0  0
    7.3112    1.2618   -3.0281 C   0  0  0  0  0  0  0  0  0  0  0  0
    6.0127    1.6622   -3.3345 C   0  0  0  0  0  0  0  0  0  0  0  0
    5.4803    1.3532   -4.5870 C   0  0  0  0  0  0  0  0  0  0  0  0
    5.8146    0.4513   -6.5088 H   0  0  0  0  0  0  0  0  0  0  0  0
    8.1266   -0.2722   -5.9453 H   0  0  0  0  0  0  0  0  0  0  0  0
    7.7308    1.5106   -2.0565 H   0  0  0  0  0  0  0  0  0  0  0  0
    5.4183    2.2263   -2.6241 H   0  0  0  0  0  0  0  0  0  0  0  0
    3.8071    1.8468   -4.9909 S   0  0  0  0  0  0  0  0  0  0  0  0
    2.9561    0.6078   -4.5447 O   0  0  0  0  0  0  0  0  0  0  0  0
    3.7334    2.0204   -6.4437 O   0  0  0  0  0  0  0  0  0  0  0  0
    3.4616    2.9997   -4.1291 O   0  0  0  0  0  0  0  0  0  0  0  0
    9.4870    0.1011   -3.6017 C   0  0  0  0  0  0  0  0  0  0  0  0
    9.4652   -0.8201   -3.0060 H   0  0  0  0  0  0  0  0  0  0  0  0
   10.0805   -0.1022   -4.4975 H   0  0  0  0  0  0  0  0  0  0  0  0
   10.0135    0.8565   -3.0095 H   0  0  0  0  0  0  0  0  0  0  0  0
   -0.8913   -0.8053   -0.6577 H   0  0  0  0  0  0  0  0  0  0  0  0
  1  6  2  0  0  0  0
  2  3  2  0  0  0  0
  2  1  1  0  0  0  0
  3  4  1  0  0  0  0
  4  9  1  0  0  0  0
  4  5  2  0  0  0  0
  5 10  1  0  0  0  0
  6  5  1  0  0  0  0
  6 31  1  0  0  0  0
  7  1  1  0  0  0  0
 11  3  1  0  0  0  0
 12 11  1  0  0  0  0
 13 14  2  0  0  0  0
 13 18  1  0  0  0  0
 14 15  1  0  0  0  0
 15 27  1  0  0  0  0
 15 16  2  0  0  0  0
 16 21  1  0  0  0  0
 17 16  1  0  0  0  0
 17 22  1  0  0  0  0
 18 17  2  0  0  0  0
 19 13  1  0  0  0  0
 20 14  1  0  0  0  0
 23 18  1  0  0  0  0
 23 24  1  0  0  0  0
 23 26  2  0  0  0  0
 24  8  1  0  0  0  0
 25 23  2  0  0  0  0
 27 30  1  0  0  0  0
 27 28  1  0  0  0  0
 29 27  1  0  0  0  0
M  RAD  3   2   2  11   2  12   3
M  END
