Coordinates from ORCA-job Ph-N2-X-OTs-B3LYPG-6-31G_dp-scan-d09-49-n400
 OpenBabel08281821093D

 31 31  0  0  0  0  0  0  0  0999 V2000
   -0.4080    0.3874   -1.4033 C   0  0  0  0  0  0  0  0  0  0  0  0
    0.7112    1.0669   -1.8742 C   0  0  0  0  0  0  0  0  0  0  0  0
    0.4917    2.2533   -2.5932 C   0  0  0  0  0  0  0  0  0  0  0  0
   -0.7884    2.7665   -2.8415 C   0  0  0  0  0  0  0  0  0  0  0  0
   -1.8873    2.0659   -2.3588 C   0  0  0  0  0  0  0  0  0  0  0  0
   -1.6952    0.8794   -1.6428 C   0  0  0  0  0  0  0  0  0  0  0  0
   -0.2700   -0.5367   -0.8522 H   0  0  0  0  0  0  0  0  0  0  0  0
    1.7217    0.7125   -1.7106 H   0  0  0  0  0  0  0  0  0  0  0  0
   -0.9001    3.6877   -3.4021 H   0  0  0  0  0  0  0  0  0  0  0  0
   -2.8890    2.4400   -2.5413 H   0  0  0  0  0  0  0  0  0  0  0  0
    1.5722    2.9836   -3.1040 N   0  0  0  0  0  0  0  0  0  0  0  0
    2.6976    3.0946   -3.2831 N   0  0  0  0  0  0  0  0  0  0  0  0
    6.0193    1.3187   -5.0474 C   0  0  0  0  0  0  0  0  0  0  0  0
    7.3705    1.4539   -5.3624 C   0  0  0  0  0  0  0  0  0  0  0  0
    8.3632    0.8699   -4.5629 C   0  0  0  0  0  0  0  0  0  0  0  0
    7.9656    0.1419   -3.4326 C   0  0  0  0  0  0  0  0  0  0  0  0
    6.6187   -0.0034   -3.1054 C   0  0  0  0  0  0  0  0  0  0  0  0
    5.6504    0.5916   -3.9153 C   0  0  0  0  0  0  0  0  0  0  0  0
    5.2504    1.7565   -5.6741 H   0  0  0  0  0  0  0  0  0  0  0  0
    7.6594    2.0173   -6.2465 H   0  0  0  0  0  0  0  0  0  0  0  0
    8.7211   -0.3206   -2.8027 H   0  0  0  0  0  0  0  0  0  0  0  0
    6.3126   -0.5804   -2.2393 H   0  0  0  0  0  0  0  0  0  0  0  0
    3.9171    0.4386   -3.4791 S   0  0  0  0  0  0  0  0  0  0  0  0
    3.7458   -0.8657   -2.8163 O   0  0  0  0  0  0  0  0  0  0  0  0
    3.1262    0.7113   -4.6965 O   0  0  0  0  0  0  0  0  0  0  0  0
    3.6724    1.5632   -2.4301 O   0  0  0  0  0  0  0  0  0  0  0  0
    9.8231    0.9944   -4.9300 C   0  0  0  0  0  0  0  0  0  0  0  0
   10.1123    0.2318   -5.6642 H   0  0  0  0  0  0  0  0  0  0  0  0
   10.0429    1.9702   -5.3743 H   0  0  0  0  0  0  0  0  0  0  0  0
   10.4681    0.8671   -4.0557 H   0  0  0  0  0  0  0  0  0  0  0  0
   -2.5561    0.3332   -1.2701 H   0  0  0  0  0  0  0  0  0  0  0  0
  1  7  1  0  0  0  0
  2  8  1  0  0  0  0
  2  1  2  0  0  0  0
  3  2  1  0  0  0  0
  4  3  2  0  0  0  0
  4  5  1  0  0  0  0
  5  6  2  0  0  0  0
  6  1  1  0  0  0  0
  6 31  1  0  0  0  0
  9  4  1  0  0  0  0
 10  5  1  0  0  0  0
 11  3  1  0  0  0  0
 12 11  2  0  0  0  0
 13 18  1  0  0  0  0
 14 13  2  0  0  0  0
 14 15  1  0  0  0  0
 15 16  2  0  0  0  0
 16 17  1  0  0  0  0
 16 21  1  0  0  0  0
 17 22  1  0  0  0  0
 18 23  1  0  0  0  0
 18 17  2  0  0  0  0
 19 13  1  0  0  0  0
 20 14  1  0  0  0  0
 23 24  2  0  0  0  0
 23 26  1  0  0  0  0
 25 23  2  0  0  0  0
 27 15  1  0  0  0  0
 27 30  1  0  0  0  0
 28 27  1  0  0  0  0
 29 27  1  0  0  0  0
M  RAD  2  12   2  26   2
M  END
