Coordinates from ORCA-job Ph-N2-X-OTs-B3LYPG-6-31G_dp-scan-d09-49-n400
 OpenBabel08281821093D

 31 31  0  0  0  0  0  0  0  0999 V2000
   -0.6082    0.5388   -1.3441 C   0  0  0  0  0  0  0  0  0  0  0  0
    0.6207    0.9935   -1.8127 C   0  0  0  0  0  0  0  0  0  0  0  0
    0.6280    2.1676   -2.5834 C   0  0  0  0  0  0  0  0  0  0  0  0
   -0.5389    2.8840   -2.8817 C   0  0  0  0  0  0  0  0  0  0  0  0
   -1.7531    2.4050   -2.4034 C   0  0  0  0  0  0  0  0  0  0  0  0
   -1.7852    1.2353   -1.6372 C   0  0  0  0  0  0  0  0  0  0  0  0
   -0.6454   -0.3689   -0.7510 H   0  0  0  0  0  0  0  0  0  0  0  0
    1.5548    0.4835   -1.6129 H   0  0  0  0  0  0  0  0  0  0  0  0
   -0.4770    3.7868   -3.4789 H   0  0  0  0  0  0  0  0  0  0  0  0
   -2.6703    2.9392   -2.6268 H   0  0  0  0  0  0  0  0  0  0  0  0
    1.8263    2.6840   -3.0957 N   0  0  0  0  0  0  0  0  0  0  0  0
    2.9579    2.5445   -3.2490 N   0  0  0  0  0  0  0  0  0  0  0  0
    5.9093    1.1184   -5.0590 C   0  0  0  0  0  0  0  0  0  0  0  0
    7.2240    1.4779   -5.3564 C   0  0  0  0  0  0  0  0  0  0  0  0
    8.2908    1.0524   -4.5545 C   0  0  0  0  0  0  0  0  0  0  0  0
    8.0071    0.2510   -3.4379 C   0  0  0  0  0  0  0  0  0  0  0  0
    6.7003   -0.1177   -3.1292 C   0  0  0  0  0  0  0  0  0  0  0  0
    5.6539    0.3241   -3.9420 C   0  0  0  0  0  0  0  0  0  0  0  0
    5.0849    1.4349   -5.6880 H   0  0  0  0  0  0  0  0  0  0  0  0
    7.4251    2.0940   -6.2296 H   0  0  0  0  0  0  0  0  0  0  0  0
    8.8220   -0.0923   -2.8054 H   0  0  0  0  0  0  0  0  0  0  0  0
    6.4864   -0.7511   -2.2748 H   0  0  0  0  0  0  0  0  0  0  0  0
    3.9665   -0.1250   -3.5318 S   0  0  0  0  0  0  0  0  0  0  0  0
    3.9981   -1.4750   -2.9534 O   0  0  0  0  0  0  0  0  0  0  0  0
    3.1428    0.1228   -4.7292 O   0  0  0  0  0  0  0  0  0  0  0  0
    3.5618    0.8803   -2.3998 O   0  0  0  0  0  0  0  0  0  0  0  0
    9.7153    1.4172   -4.8996 C   0  0  0  0  0  0  0  0  0  0  0  0
   10.2007    0.6157   -5.4711 H   0  0  0  0  0  0  0  0  0  0  0  0
    9.7599    2.3251   -5.5084 H   0  0  0  0  0  0  0  0  0  0  0  0
   10.3159    1.5810   -3.9996 H   0  0  0  0  0  0  0  0  0  0  0  0
   -2.7351    0.8640   -1.2654 H   0  0  0  0  0  0  0  0  0  0  0  0
  1  7  1  0  0  0  0
  2  8  1  0  0  0  0
  2  1  2  0  0  0  0
  3  2  1  0  0  0  0
  4  3  2  0  0  0  0
  4  5  1  0  0  0  0
  5  6  2  0  0  0  0
  6  1  1  0  0  0  0
  6 31  1  0  0  0  0
  9  4  1  0  0  0  0
 10  5  1  0  0  0  0
 11  3  1  0  0  0  0
 12 11  2  0  0  0  0
 13 18  1  0  0  0  0
 14 13  2  0  0  0  0
 14 15  1  0  0  0  0
 15 16  2  0  0  0  0
 16 17  1  0  0  0  0
 16 21  1  0  0  0  0
 17 22  1  0  0  0  0
 18 23  1  0  0  0  0
 18 17  2  0  0  0  0
 19 13  1  0  0  0  0
 20 14  1  0  0  0  0
 23 24  2  0  0  0  0
 23 26  1  0  0  0  0
 25 23  2  0  0  0  0
 27 15  1  0  0  0  0
 27 30  1  0  0  0  0
 28 27  1  0  0  0  0
 29 27  1  0  0  0  0
M  RAD  2  12   2  26   2
M  END
