Coordinates from ORCA-job Ph-N2-X-OTs-B3LYPG-6-31G_dp-scan-d09-49-n400
 OpenBabel08281821093D

 31 31  0  0  0  0  0  0  0  0999 V2000
   -0.0882    1.2002   -0.7403 C   0  0  0  0  0  0  0  0  0  0  0  0
    0.9275    1.2778   -1.6895 C   0  0  0  0  0  0  0  0  0  0  0  0
    0.6734    1.9933   -2.8693 C   0  0  0  0  0  0  0  0  0  0  0  0
   -0.5493    2.6386   -3.0975 C   0  0  0  0  0  0  0  0  0  0  0  0
   -1.5566    2.5292   -2.1446 C   0  0  0  0  0  0  0  0  0  0  0  0
   -1.3248    1.8120   -0.9674 C   0  0  0  0  0  0  0  0  0  0  0  0
    0.0877    0.6538    0.1806 H   0  0  0  0  0  0  0  0  0  0  0  0
    1.8904    0.8154   -1.5302 H   0  0  0  0  0  0  0  0  0  0  0  0
   -0.6930    3.1970   -4.0159 H   0  0  0  0  0  0  0  0  0  0  0  0
   -2.5150    3.0083   -2.3148 H   0  0  0  0  0  0  0  0  0  0  0  0
    1.6476    2.1529   -3.8720 N   0  0  0  0  0  0  0  0  0  0  0  0
    2.6145    1.6768   -4.3115 N   0  0  0  0  0  0  0  0  0  0  0  0
    5.9069    1.0062   -5.2795 C   0  0  0  0  0  0  0  0  0  0  0  0
    7.1633    1.6062   -5.1983 C   0  0  0  0  0  0  0  0  0  0  0  0
    8.0897    1.2197   -4.2205 C   0  0  0  0  0  0  0  0  0  0  0  0
    7.7246    0.2090   -3.3184 C   0  0  0  0  0  0  0  0  0  0  0  0
    6.4732   -0.3991   -3.3849 C   0  0  0  0  0  0  0  0  0  0  0  0
    5.5667    0.0091   -4.3654 C   0  0  0  0  0  0  0  0  0  0  0  0
    5.1968    1.2929   -6.0473 H   0  0  0  0  0  0  0  0  0  0  0  0
    7.4307    2.3832   -5.9101 H   0  0  0  0  0  0  0  0  0  0  0  0
    8.4333   -0.1087   -2.5575 H   0  0  0  0  0  0  0  0  0  0  0  0
    6.1991   -1.1934   -2.6988 H   0  0  0  0  0  0  0  0  0  0  0  0
    3.9446   -0.7520   -4.4418 S   0  0  0  0  0  0  0  0  0  0  0  0
    4.0599   -2.0964   -3.8678 O   0  0  0  0  0  0  0  0  0  0  0  0
    3.4379   -0.5805   -5.8073 O   0  0  0  0  0  0  0  0  0  0  0  0
    3.0716    0.1236   -3.4346 O   0  0  0  0  0  0  0  0  0  0  0  0
    9.4609    1.8502   -4.1573 C   0  0  0  0  0  0  0  0  0  0  0  0
   10.2069    1.2211   -4.6584 H   0  0  0  0  0  0  0  0  0  0  0  0
    9.4747    2.8271   -4.6481 H   0  0  0  0  0  0  0  0  0  0  0  0
    9.7932    1.9834   -3.1232 H   0  0  0  0  0  0  0  0  0  0  0  0
   -2.1090    1.7342   -0.2201 H   0  0  0  0  0  0  0  0  0  0  0  0
  1  7  1  0  0  0  0
  2  8  1  0  0  0  0
  2  1  2  0  0  0  0
  3  2  1  0  0  0  0
  4  3  2  0  0  0  0
  4  5  1  0  0  0  0
  5  6  2  0  0  0  0
  6  1  1  0  0  0  0
  6 31  1  0  0  0  0
  9  4  1  0  0  0  0
 10  5  1  0  0  0  0
 11  3  1  0  0  0  0
 12 11  2  0  0  0  0
 13 14  2  0  0  0  0
 13 18  1  0  0  0  0
 14 15  1  0  0  0  0
 15 27  1  0  0  0  0
 15 16  2  0  0  0  0
 16 21  1  0  0  0  0
 17 16  1  0  0  0  0
 17 22  1  0  0  0  0
 18 17  2  0  0  0  0
 19 13  1  0  0  0  0
 20 14  1  0  0  0  0
 23 18  1  0  0  0  0
 23 24  2  0  0  0  0
 23 26  1  0  0  0  0
 25 23  2  0  0  0  0
 27 30  1  0  0  0  0
 28 27  1  0  0  0  0
 29 27  1  0  0  0  0
M  RAD  2  12   2  26   2
M  END
