Coordinates from ORCA-job Ph-N2-X-OTs-B3LYPG-6-31G_dp-scan-d09-49-n400
 OpenBabel08281821093D

 31 31  0  0  0  0  0  0  0  0999 V2000
   -0.5011    0.4451   -1.3892 C   0  0  0  0  0  0  0  0  0  0  0  0
    0.6742    1.0440   -1.8317 C   0  0  0  0  0  0  0  0  0  0  0  0
    0.5567    2.2276   -2.5787 C   0  0  0  0  0  0  0  0  0  0  0  0
   -0.6789    2.8156   -2.8801 C   0  0  0  0  0  0  0  0  0  0  0  0
   -1.8364    2.1938   -2.4270 C   0  0  0  0  0  0  0  0  0  0  0  0
   -1.7454    1.0117   -1.6845 C   0  0  0  0  0  0  0  0  0  0  0  0
   -0.4422   -0.4742   -0.8163 H   0  0  0  0  0  0  0  0  0  0  0  0
    1.6565    0.6361   -1.6274 H   0  0  0  0  0  0  0  0  0  0  0  0
   -0.7124    3.7319   -3.4587 H   0  0  0  0  0  0  0  0  0  0  0  0
   -2.8053    2.6261   -2.6522 H   0  0  0  0  0  0  0  0  0  0  0  0
    1.6984    2.8802   -3.0616 N   0  0  0  0  0  0  0  0  0  0  0  0
    2.8362    2.8928   -3.2057 N   0  0  0  0  0  0  0  0  0  0  0  0
    5.9593    1.2429   -5.0277 C   0  0  0  0  0  0  0  0  0  0  0  0
    7.2953    1.4679   -5.3567 C   0  0  0  0  0  0  0  0  0  0  0  0
    8.3330    0.9419   -4.5745 C   0  0  0  0  0  0  0  0  0  0  0  0
    7.9963    0.1795   -3.4467 C   0  0  0  0  0  0  0  0  0  0  0  0
    6.6657   -0.0554   -3.1059 C   0  0  0  0  0  0  0  0  0  0  0  0
    5.6513    0.4835   -3.8987 C   0  0  0  0  0  0  0  0  0  0  0  0
    5.1564    1.6362   -5.6411 H   0  0  0  0  0  0  0  0  0  0  0  0
    7.5367    2.0564   -6.2386 H   0  0  0  0  0  0  0  0  0  0  0  0
    8.7873   -0.2393   -2.8300 H   0  0  0  0  0  0  0  0  0  0  0  0
    6.4086   -0.6590   -2.2420 H   0  0  0  0  0  0  0  0  0  0  0  0
    3.9370    0.2121   -3.4448 S   0  0  0  0  0  0  0  0  0  0  0  0
    3.8532   -1.1187   -2.8235 O   0  0  0  0  0  0  0  0  0  0  0  0
    3.1145    0.4864   -4.6397 O   0  0  0  0  0  0  0  0  0  0  0  0
    3.6449    1.2863   -2.3504 O   0  0  0  0  0  0  0  0  0  0  0  0
    9.7774    1.1625   -4.9571 C   0  0  0  0  0  0  0  0  0  0  0  0
   10.1100    0.4166   -5.6901 H   0  0  0  0  0  0  0  0  0  0  0  0
    9.9260    2.1482   -5.4090 H   0  0  0  0  0  0  0  0  0  0  0  0
   10.4381    1.0839   -4.0887 H   0  0  0  0  0  0  0  0  0  0  0  0
   -2.6518    0.5282   -1.3338 H   0  0  0  0  0  0  0  0  0  0  0  0
  1  7  1  0  0  0  0
  2  8  1  0  0  0  0
  2  1  2  0  0  0  0
  3  2  1  0  0  0  0
  4  3  2  0  0  0  0
  4  5  1  0  0  0  0
  5  6  2  0  0  0  0
  6  1  1  0  0  0  0
  6 31  1  0  0  0  0
  9  4  1  0  0  0  0
 10  5  1  0  0  0  0
 11  3  1  0  0  0  0
 12 11  2  0  0  0  0
 13 18  1  0  0  0  0
 14 13  2  0  0  0  0
 14 15  1  0  0  0  0
 15 16  2  0  0  0  0
 16 17  1  0  0  0  0
 16 21  1  0  0  0  0
 17 22  1  0  0  0  0
 18 23  1  0  0  0  0
 18 17  2  0  0  0  0
 19 13  1  0  0  0  0
 20 14  1  0  0  0  0
 23 24  2  0  0  0  0
 23 26  1  0  0  0  0
 25 23  2  0  0  0  0
 27 15  1  0  0  0  0
 27 30  1  0  0  0  0
 28 27  1  0  0  0  0
 29 27  1  0  0  0  0
M  RAD  2  12   2  26   2
M  END
