Coordinates from ORCA-job Ph-N2-X-OTs-B3LYPG-6-31G_dp-scan-d09-49-n400
 OpenBabel08281821093D

 31 31  0  0  0  0  0  0  0  0999 V2000
    0.4498   -0.0762   -2.0882 C   0  0  0  0  0  0  0  0  0  0  0  0
    0.9778    0.9806   -2.8524 C   0  0  0  0  0  0  0  0  0  0  0  0
    0.2741    2.1833   -2.6709 C   0  0  0  0  0  0  0  0  0  0  0  0
   -0.8493    2.4060   -1.8402 C   0  0  0  0  0  0  0  0  0  0  0  0
   -1.3084    1.3194   -1.1223 C   0  0  0  0  0  0  0  0  0  0  0  0
   -0.6548    0.0778   -1.2514 C   0  0  0  0  0  0  0  0  0  0  0  0
    0.9247   -1.0518   -2.1585 H   0  0  0  0  0  0  0  0  0  0  0  0
    2.0518    0.8291   -3.6643 H   0  0  0  0  0  0  0  0  0  0  0  0
   -1.3188    3.3823   -1.7744 H   0  0  0  0  0  0  0  0  0  0  0  0
   -2.1671    1.4243   -0.4679 H   0  0  0  0  0  0  0  0  0  0  0  0
    0.7276    3.2762   -3.3981 N   0  0  0  0  0  0  0  0  0  0  0  0
    1.1531    4.1110   -4.0022 N   0  0  0  0  0  0  0  0  0  0  0  0
    6.2242    0.6629   -5.4974 C   0  0  0  0  0  0  0  0  0  0  0  0
    7.5382    0.2798   -5.2319 C   0  0  0  0  0  0  0  0  0  0  0  0
    8.1423    0.5650   -4.0000 C   0  0  0  0  0  0  0  0  0  0  0  0
    7.3947    1.2579   -3.0364 C   0  0  0  0  0  0  0  0  0  0  0  0
    6.0800    1.6455   -3.2864 C   0  0  0  0  0  0  0  0  0  0  0  0
    5.4987    1.3409   -4.5178 C   0  0  0  0  0  0  0  0  0  0  0  0
    5.7650    0.4596   -6.4586 H   0  0  0  0  0  0  0  0  0  0  0  0
    8.1071   -0.2416   -5.9978 H   0  0  0  0  0  0  0  0  0  0  0  0
    7.8514    1.5043   -2.0808 H   0  0  0  0  0  0  0  0  0  0  0  0
    5.5095    2.1987   -2.5483 H   0  0  0  0  0  0  0  0  0  0  0  0
    3.8002    1.8103   -4.8481 S   0  0  0  0  0  0  0  0  0  0  0  0
    2.9800    0.5948   -4.3554 O   0  0  0  0  0  0  0  0  0  0  0  0
    3.6696    1.9994   -6.2987 O   0  0  0  0  0  0  0  0  0  0  0  0
    3.4980    2.9819   -3.9832 O   0  0  0  0  0  0  0  0  0  0  0  0
    9.5580    0.1260   -3.7090 C   0  0  0  0  0  0  0  0  0  0  0  0
    9.5720   -0.8227   -3.1575 H   0  0  0  0  0  0  0  0  0  0  0  0
   10.1282   -0.0238   -4.6302 H   0  0  0  0  0  0  0  0  0  0  0  0
   10.0883    0.8630   -3.0974 H   0  0  0  0  0  0  0  0  0  0  0  0
   -1.0265   -0.7729   -0.6861 H   0  0  0  0  0  0  0  0  0  0  0  0
  1  6  2  0  0  0  0
  2  3  2  0  0  0  0
  2  1  1  0  0  0  0
  3  4  1  0  0  0  0
  4  9  1  0  0  0  0
  4  5  2  0  0  0  0
  5 10  1  0  0  0  0
  6  5  1  0  0  0  0
  6 31  1  0  0  0  0
  7  1  1  0  0  0  0
 11  3  1  0  0  0  0
 12 11  1  0  0  0  0
 13 14  2  0  0  0  0
 13 18  1  0  0  0  0
 14 15  1  0  0  0  0
 15 27  1  0  0  0  0
 15 16  2  0  0  0  0
 16 21  1  0  0  0  0
 17 16  1  0  0  0  0
 17 22  1  0  0  0  0
 18 17  2  0  0  0  0
 19 13  1  0  0  0  0
 20 14  1  0  0  0  0
 23 18  1  0  0  0  0
 23 24  1  0  0  0  0
 23 26  2  0  0  0  0
 24  8  1  0  0  0  0
 25 23  2  0  0  0  0
 27 28  1  0  0  0  0
 27 30  1  0  0  0  0
 29 27  1  0  0  0  0
M  RAD  3   2   2  11   2  12   3
M  END
