Coordinates from ORCA-job Ph-N2-X-OTs-B3LYPG-6-31G_dp-scan-d09-49-n400
 OpenBabel08281821093D

 31 31  0  0  0  0  0  0  0  0999 V2000
    0.1826   -0.0391   -1.7707 C   0  0  0  0  0  0  0  0  0  0  0  0
    0.8692    0.8995   -2.5470 C   0  0  0  0  0  0  0  0  0  0  0  0
    0.2040    2.1244   -2.7206 C   0  0  0  0  0  0  0  0  0  0  0  0
   -1.0600    2.4485   -2.1934 C   0  0  0  0  0  0  0  0  0  0  0  0
   -1.6926    1.4827   -1.4279 C   0  0  0  0  0  0  0  0  0  0  0  0
   -1.0689    0.2417   -1.2196 C   0  0  0  0  0  0  0  0  0  0  0  0
    0.6415   -1.0084   -1.6008 H   0  0  0  0  0  0  0  0  0  0  0  0
    1.8996    0.6973   -3.0448 H   0  0  0  0  0  0  0  0  0  0  0  0
   -1.5075    3.4187   -2.3802 H   0  0  0  0  0  0  0  0  0  0  0  0
   -2.6666    1.6869   -0.9972 H   0  0  0  0  0  0  0  0  0  0  0  0
    0.8452    3.0934   -3.4864 N   0  0  0  0  0  0  0  0  0  0  0  0
    1.5614    3.7341   -4.0660 N   0  0  0  0  0  0  0  0  0  0  0  0
    6.2663    0.8442   -5.4783 C   0  0  0  0  0  0  0  0  0  0  0  0
    7.6260    0.5369   -5.4096 C   0  0  0  0  0  0  0  0  0  0  0  0
    8.3307    0.6337   -4.2037 C   0  0  0  0  0  0  0  0  0  0  0  0
    7.6375    1.0593   -3.0594 C   0  0  0  0  0  0  0  0  0  0  0  0
    6.2812    1.3675   -3.1122 C   0  0  0  0  0  0  0  0  0  0  0  0
    5.5990    1.2545   -4.3261 C   0  0  0  0  0  0  0  0  0  0  0  0
    5.7192    0.7813   -6.4126 H   0  0  0  0  0  0  0  0  0  0  0  0
    8.1475    0.2198   -6.3094 H   0  0  0  0  0  0  0  0  0  0  0  0
    8.1714    1.1551   -2.1166 H   0  0  0  0  0  0  0  0  0  0  0  0
    5.7556    1.7113   -2.2276 H   0  0  0  0  0  0  0  0  0  0  0  0
    3.8421    1.6077   -4.4069 S   0  0  0  0  0  0  0  0  0  0  0  0
    3.1625    0.4473   -3.7151 O   0  0  0  0  0  0  0  0  0  0  0  0
    3.4777    1.7426   -5.8297 O   0  0  0  0  0  0  0  0  0  0  0  0
    3.6494    2.8648   -3.5956 O   0  0  0  0  0  0  0  0  0  0  0  0
    9.7958    0.2744   -4.1262 C   0  0  0  0  0  0  0  0  0  0  0  0
    9.9353   -0.7258   -3.6967 H   0  0  0  0  0  0  0  0  0  0  0  0
   10.2610    0.2723   -5.1159 H   0  0  0  0  0  0  0  0  0  0  0  0
   10.3481    0.9760   -3.4928 H   0  0  0  0  0  0  0  0  0  0  0  0
   -1.5751   -0.5119   -0.6230 H   0  0  0  0  0  0  0  0  0  0  0  0
  1  7  1  0  0  0  0
  1  6  2  0  0  0  0
  2  1  1  0  0  0  0
  3  2  2  0  0  0  0
  3  4  1  0  0  0  0
  4  5  2  0  0  0  0
  5  6  1  0  0  0  0
  5 10  1  0  0  0  0
  6 31  1  0  0  0  0
  8  2  1  0  0  0  0
  9  4  1  0  0  0  0
 11  3  1  0  0  0  0
 12 11  1  0  0  0  0
 13 14  2  0  0  0  0
 13 18  1  0  0  0  0
 14 15  1  0  0  0  0
 15 27  1  0  0  0  0
 15 16  2  0  0  0  0
 16 21  1  0  0  0  0
 17 16  1  0  0  0  0
 17 22  1  0  0  0  0
 18 17  2  0  0  0  0
 19 13  1  0  0  0  0
 20 14  1  0  0  0  0
 23 18  1  0  0  0  0
 23 24  2  0  0  0  0
 23 26  1  0  0  0  0
 25 23  2  0  0  0  0
 27 28  1  0  0  0  0
 27 30  1  0  0  0  0
 29 27  1  0  0  0  0
M  RAD  3  11   2  12   3  26   2
M  END
