Coordinates from ORCA-job Ph-N2-X-OTs-B3LYPG-6-31G_dp-scan-d09-49-n400
 OpenBabel08281821093D

 31 31  0  0  0  0  0  0  0  0999 V2000
   -0.4257    0.3985   -1.3999 C   0  0  0  0  0  0  0  0  0  0  0  0
    0.7045    1.0643   -1.8638 C   0  0  0  0  0  0  0  0  0  0  0  0
    0.5040    2.2496   -2.5901 C   0  0  0  0  0  0  0  0  0  0  0  0
   -0.7684    2.7750   -2.8519 C   0  0  0  0  0  0  0  0  0  0  0  0
   -1.8789    2.0876   -2.3765 C   0  0  0  0  0  0  0  0  0  0  0  0
   -1.7055    0.9025   -1.6536 C   0  0  0  0  0  0  0  0  0  0  0  0
   -0.3025   -0.5244   -0.8432 H   0  0  0  0  0  0  0  0  0  0  0  0
    1.7103    0.7018   -1.6899 H   0  0  0  0  0  0  0  0  0  0  0  0
   -0.8655    3.6949   -3.4173 H   0  0  0  0  0  0  0  0  0  0  0  0
   -2.8749    2.4711   -2.5699 H   0  0  0  0  0  0  0  0  0  0  0  0
    1.5967    2.9666   -3.0939 N   0  0  0  0  0  0  0  0  0  0  0  0
    2.7254    3.0599   -3.2643 N   0  0  0  0  0  0  0  0  0  0  0  0
    6.0072    1.3063   -5.0412 C   0  0  0  0  0  0  0  0  0  0  0  0
    7.3557    1.4577   -5.3607 C   0  0  0  0  0  0  0  0  0  0  0  0
    8.3578    0.8827   -4.5665 C   0  0  0  0  0  0  0  0  0  0  0  0
    7.9725    0.1472   -3.4367 C   0  0  0  0  0  0  0  0  0  0  0  0
    6.6285   -0.0141   -3.1051 C   0  0  0  0  0  0  0  0  0  0  0  0
    5.6506    0.5720   -3.9098 C   0  0  0  0  0  0  0  0  0  0  0  0
    5.2312    1.7370   -5.6640 H   0  0  0  0  0  0  0  0  0  0  0  0
    7.6349    2.0266   -6.2443 H   0  0  0  0  0  0  0  0  0  0  0  0
    8.7355   -0.3085   -2.8108 H   0  0  0  0  0  0  0  0  0  0  0  0
    6.3323   -0.5970   -2.2394 H   0  0  0  0  0  0  0  0  0  0  0  0
    3.9208    0.3974   -3.4678 S   0  0  0  0  0  0  0  0  0  0  0  0
    3.7661   -0.9125   -2.8129 O   0  0  0  0  0  0  0  0  0  0  0  0
    3.1227    0.6714   -4.6801 O   0  0  0  0  0  0  0  0  0  0  0  0
    3.6684    1.5127   -2.4097 O   0  0  0  0  0  0  0  0  0  0  0  0
    9.8148    1.0245   -4.9385 C   0  0  0  0  0  0  0  0  0  0  0  0
   10.1096    0.2677   -5.6765 H   0  0  0  0  0  0  0  0  0  0  0  0
   10.0223    2.0043   -5.3802 H   0  0  0  0  0  0  0  0  0  0  0  0
   10.4644    0.9012   -4.0671 H   0  0  0  0  0  0  0  0  0  0  0  0
   -2.5755    0.3669   -1.2864 H   0  0  0  0  0  0  0  0  0  0  0  0
  1  7  1  0  0  0  0
  2  8  1  0  0  0  0
  2  1  2  0  0  0  0
  3  2  1  0  0  0  0
  4  3  2  0  0  0  0
  4  5  1  0  0  0  0
  5  6  2  0  0  0  0
  6  1  1  0  0  0  0
  6 31  1  0  0  0  0
  9  4  1  0  0  0  0
 10  5  1  0  0  0  0
 11  3  1  0  0  0  0
 12 11  2  0  0  0  0
 13 18  1  0  0  0  0
 14 13  2  0  0  0  0
 14 15  1  0  0  0  0
 15 16  2  0  0  0  0
 16 17  1  0  0  0  0
 16 21  1  0  0  0  0
 17 22  1  0  0  0  0
 18 23  1  0  0  0  0
 18 17  2  0  0  0  0
 19 13  1  0  0  0  0
 20 14  1  0  0  0  0
 23 24  2  0  0  0  0
 23 26  1  0  0  0  0
 25 23  2  0  0  0  0
 27 15  1  0  0  0  0
 27 30  1  0  0  0  0
 28 27  1  0  0  0  0
 29 27  1  0  0  0  0
M  RAD  2  12   2  26   2
M  END
