Coordinates from ORCA-job Ph-N2-X-OTs-B3LYPG-6-31G_dp-scan-d09-49-n400
 OpenBabel08281821093D

 31 31  0  0  0  0  0  0  0  0999 V2000
    0.4234   -0.0777   -2.0618 C   0  0  0  0  0  0  0  0  0  0  0  0
    0.9691    0.9720   -2.8207 C   0  0  0  0  0  0  0  0  0  0  0  0
    0.2642    2.1784   -2.6729 C   0  0  0  0  0  0  0  0  0  0  0  0
   -0.8806    2.4079   -1.8758 C   0  0  0  0  0  0  0  0  0  0  0  0
   -1.3593    1.3284   -1.1588 C   0  0  0  0  0  0  0  0  0  0  0  0
   -0.7033    0.0857   -1.2565 C   0  0  0  0  0  0  0  0  0  0  0  0
    0.9008   -1.0532   -2.1108 H   0  0  0  0  0  0  0  0  0  0  0  0
    2.0296    0.8248   -3.5893 H   0  0  0  0  0  0  0  0  0  0  0  0
   -1.3516    3.3845   -1.8330 H   0  0  0  0  0  0  0  0  0  0  0  0
   -2.2355    1.4403   -0.5294 H   0  0  0  0  0  0  0  0  0  0  0  0
    0.7420    3.2618   -3.3993 N   0  0  0  0  0  0  0  0  0  0  0  0
    1.2078    4.0755   -4.0031 N   0  0  0  0  0  0  0  0  0  0  0  0
    6.2264    0.6707   -5.4909 C   0  0  0  0  0  0  0  0  0  0  0  0
    7.5456    0.2916   -5.2464 C   0  0  0  0  0  0  0  0  0  0  0  0
    8.1652    0.5703   -4.0208 C   0  0  0  0  0  0  0  0  0  0  0  0
    7.4279    1.2530   -3.0421 C   0  0  0  0  0  0  0  0  0  0  0  0
    6.1083    1.6366   -3.2713 C   0  0  0  0  0  0  0  0  0  0  0  0
    5.5112    1.3383   -4.4968 C   0  0  0  0  0  0  0  0  0  0  0  0
    5.7543    0.4725   -6.4470 H   0  0  0  0  0  0  0  0  0  0  0  0
    8.1062   -0.2217   -6.0239 H   0  0  0  0  0  0  0  0  0  0  0  0
    7.8967    1.4945   -2.0911 H   0  0  0  0  0  0  0  0  0  0  0  0
    5.5459    2.1823   -2.5214 H   0  0  0  0  0  0  0  0  0  0  0  0
    3.8046    1.7986   -4.7997 S   0  0  0  0  0  0  0  0  0  0  0  0
    2.9969    0.5927   -4.2796 O   0  0  0  0  0  0  0  0  0  0  0  0
    3.6479    1.9799   -6.2496 O   0  0  0  0  0  0  0  0  0  0  0  0
    3.5209    2.9828   -3.9417 O   0  0  0  0  0  0  0  0  0  0  0  0
    9.5865    0.1347   -3.7524 C   0  0  0  0  0  0  0  0  0  0  0  0
    9.6117   -0.8226   -3.2164 H   0  0  0  0  0  0  0  0  0  0  0  0
   10.1472    0.0026   -4.6821 H   0  0  0  0  0  0  0  0  0  0  0  0
   10.1196    0.8647   -3.1350 H   0  0  0  0  0  0  0  0  0  0  0  0
   -1.0904   -0.7589   -0.6926 H   0  0  0  0  0  0  0  0  0  0  0  0
  1  6  2  0  0  0  0
  2  3  2  0  0  0  0
  2  1  1  0  0  0  0
  3  4  1  0  0  0  0
  4  9  1  0  0  0  0
  4  5  2  0  0  0  0
  5 10  1  0  0  0  0
  6  5  1  0  0  0  0
  6 31  1  0  0  0  0
  7  1  1  0  0  0  0
 11  3  1  0  0  0  0
 12 11  1  0  0  0  0
 13 14  2  0  0  0  0
 13 18  1  0  0  0  0
 14 15  1  0  0  0  0
 15 27  1  0  0  0  0
 15 16  2  0  0  0  0
 16 21  1  0  0  0  0
 17 16  1  0  0  0  0
 17 22  1  0  0  0  0
 18 17  2  0  0  0  0
 19 13  1  0  0  0  0
 20 14  1  0  0  0  0
 23 18  1  0  0  0  0
 23 24  1  0  0  0  0
 23 26  2  0  0  0  0
 24  8  1  0  0  0  0
 25 23  2  0  0  0  0
 27 28  1  0  0  0  0
 27 30  1  0  0  0  0
 29 27  1  0  0  0  0
M  RAD  3   2   2  11   2  12   3
M  END
