Coordinates from ORCA-job Ph-N2-X-OTs-B3LYPG-6-31G_dp-scan-d09-49-n400
 OpenBabel08281821093D

 31 31  0  0  0  0  0  0  0  0999 V2000
    0.9786   -0.0493   -2.1891 C   0  0  0  0  0  0  0  0  0  0  0  0
    1.1958    1.0251   -3.0855 C   0  0  0  0  0  0  0  0  0  0  0  0
    0.4764    2.1640   -2.6786 C   0  0  0  0  0  0  0  0  0  0  0  0
   -0.3750    2.3324   -1.5565 C   0  0  0  0  0  0  0  0  0  0  0  0
   -0.5230    1.2300   -0.7417 C   0  0  0  0  0  0  0  0  0  0  0  0
    0.1584    0.0366   -1.0666 C   0  0  0  0  0  0  0  0  0  0  0  0
    1.4769   -0.9971   -2.3857 H   0  0  0  0  0  0  0  0  0  0  0  0
    2.1913    0.9372   -4.4468 H   0  0  0  0  0  0  0  0  0  0  0  0
   -0.8756    3.2744   -1.3537 H   0  0  0  0  0  0  0  0  0  0  0  0
   -1.1558    1.2815    0.1382 H   0  0  0  0  0  0  0  0  0  0  0  0
    0.6152    3.2755   -3.5015 N   0  0  0  0  0  0  0  0  0  0  0  0
    0.7579    4.1437   -4.1870 N   0  0  0  0  0  0  0  0  0  0  0  0
    6.2126    0.7991   -5.6354 C   0  0  0  0  0  0  0  0  0  0  0  0
    7.4075    0.3246   -5.0958 C   0  0  0  0  0  0  0  0  0  0  0  0
    7.7060    0.4893   -3.7363 C   0  0  0  0  0  0  0  0  0  0  0  0
    6.7756    1.1560   -2.9251 C   0  0  0  0  0  0  0  0  0  0  0  0
    5.5774    1.6362   -3.4480 C   0  0  0  0  0  0  0  0  0  0  0  0
    5.3015    1.4498   -4.8037 C   0  0  0  0  0  0  0  0  0  0  0  0
    5.9887    0.6858   -6.6905 H   0  0  0  0  0  0  0  0  0  0  0  0
    8.1232   -0.1754   -5.7434 H   0  0  0  0  0  0  0  0  0  0  0  0
    6.9973    1.3083   -1.8718 H   0  0  0  0  0  0  0  0  0  0  0  0
    4.8674    2.1658   -2.8219 H   0  0  0  0  0  0  0  0  0  0  0  0
    3.7565    2.0430   -5.4867 S   0  0  0  0  0  0  0  0  0  0  0  0
    2.7581    0.8300   -5.2639 O   0  0  0  0  0  0  0  0  0  0  0  0
    3.9399    2.2228   -6.9240 O   0  0  0  0  0  0  0  0  0  0  0  0
    3.3128    3.1778   -4.6566 O   0  0  0  0  0  0  0  0  0  0  0  0
    8.9894   -0.0508   -3.1516 C   0  0  0  0  0  0  0  0  0  0  0  0
    8.8266   -1.0299   -2.6840 H   0  0  0  0  0  0  0  0  0  0  0  0
    9.7566   -0.1801   -3.9202 H   0  0  0  0  0  0  0  0  0  0  0  0
    9.3887    0.6136   -2.3787 H   0  0  0  0  0  0  0  0  0  0  0  0
    0.0324   -0.8293   -0.4199 H   0  0  0  0  0  0  0  0  0  0  0  0
  1  6  2  0  0  0  0
  2  3  2  0  0  0  0
  2  1  1  0  0  0  0
  3  4  1  0  0  0  0
  4  9  1  0  0  0  0
  4  5  2  0  0  0  0
  5 10  1  0  0  0  0
  6  5  1  0  0  0  0
  6 31  1  0  0  0  0
  7  1  1  0  0  0  0
 11  3  1  0  0  0  0
 12 11  1  0  0  0  0
 13 14  2  0  0  0  0
 13 18  1  0  0  0  0
 14 15  1  0  0  0  0
 15 27  1  0  0  0  0
 15 16  2  0  0  0  0
 16 21  1  0  0  0  0
 17 16  1  0  0  0  0
 17 22  1  0  0  0  0
 18 17  2  0  0  0  0
 19 13  1  0  0  0  0
 20 14  1  0  0  0  0
 23 24  1  0  0  0  0
 23 18  1  0  0  0  0
 23 26  2  0  0  0  0
 24  8  1  0  0  0  0
 25 23  2  0  0  0  0
 27 28  1  0  0  0  0
 27 30  1  0  0  0  0
 29 27  1  0  0  0  0
M  RAD  3   2   2  11   2  12   3
M  END
