Coordinates from ORCA-job Ph-N2-X-OTs-B3LYPG-6-31G_dp-scan-d09-49-n400
 OpenBabel08281821093D

 31 32  0  0  0  0  0  0  0  0999 V2000
    0.0427    1.4663   -0.6123 C   0  0  0  0  0  0  0  0  0  0  0  0
    1.0550    1.6510   -1.5506 C   0  0  0  0  0  0  0  0  0  0  0  0
    0.6941    2.0675   -2.8377 C   0  0  0  0  0  0  0  0  0  0  0  0
   -0.6340    2.3350   -3.1864 C   0  0  0  0  0  0  0  0  0  0  0  0
   -1.6319    2.1149   -2.2416 C   0  0  0  0  0  0  0  0  0  0  0  0
   -1.2945    1.6831   -0.9562 C   0  0  0  0  0  0  0  0  0  0  0  0
    0.3025    1.1453    0.3911 H   0  0  0  0  0  0  0  0  0  0  0  0
    2.0944    1.5037   -1.2897 H   0  0  0  0  0  0  0  0  0  0  0  0
   -0.8655    2.6872   -4.1854 H   0  0  0  0  0  0  0  0  0  0  0  0
   -2.6693    2.2940   -2.5048 H   0  0  0  0  0  0  0  0  0  0  0  0
    1.6719    2.3299   -3.8245 N   0  0  0  0  0  0  0  0  0  0  0  0
    2.6516    1.8678   -4.2563 N   0  0  0  0  0  0  0  0  0  0  0  0
    5.9221    1.0962   -5.2841 C   0  0  0  0  0  0  0  0  0  0  0  0
    7.2087    1.6211   -5.1680 C   0  0  0  0  0  0  0  0  0  0  0  0
    8.1037    1.1412   -4.2023 C   0  0  0  0  0  0  0  0  0  0  0  0
    7.6754    0.1131   -3.3493 C   0  0  0  0  0  0  0  0  0  0  0  0
    6.3933   -0.4218   -3.4513 C   0  0  0  0  0  0  0  0  0  0  0  0
    5.5199    0.0794   -4.4182 C   0  0  0  0  0  0  0  0  0  0  0  0
    5.2355    1.4573   -6.0418 H   0  0  0  0  0  0  0  0  0  0  0  0
    7.5235    2.4134   -5.8427 H   0  0  0  0  0  0  0  0  0  0  0  0
    8.3577   -0.2768   -2.5980 H   0  0  0  0  0  0  0  0  0  0  0  0
    6.0709   -1.2290   -2.8021 H   0  0  0  0  0  0  0  0  0  0  0  0
    3.8583   -0.5819   -4.5371 S   0  0  0  0  0  0  0  0  0  0  0  0
    3.8908   -1.9627   -4.0471 O   0  0  0  0  0  0  0  0  0  0  0  0
    3.3587   -0.2941   -5.8853 O   0  0  0  0  0  0  0  0  0  0  0  0
    3.0347    0.2802   -3.4696 O   0  0  0  0  0  0  0  0  0  0  0  0
    9.5065    1.6915   -4.1030 C   0  0  0  0  0  0  0  0  0  0  0  0
   10.2110    1.0791   -4.6791 H   0  0  0  0  0  0  0  0  0  0  0  0
    9.5655    2.7110   -4.4943 H   0  0  0  0  0  0  0  0  0  0  0  0
    9.8600    1.7033   -3.0673 H   0  0  0  0  0  0  0  0  0  0  0  0
   -2.0738    1.5248   -0.2172 H   0  0  0  0  0  0  0  0  0  0  0  0
  1  7  1  0  0  0  0
  2  8  1  0  0  0  0
  2  1  2  0  0  0  0
  3  2  1  0  0  0  0
  4  3  2  0  0  0  0
  4  5  1  0  0  0  0
  5  6  2  0  0  0  0
  6  1  1  0  0  0  0
  6 31  1  0  0  0  0
  9  4  1  0  0  0  0
 10  5  1  0  0  0  0
 11  3  1  0  0  0  0
 12 11  1  0  0  0  0
 12 26  1  0  0  0  0
 13 14  2  0  0  0  0
 13 18  1  0  0  0  0
 14 15  1  0  0  0  0
 15 27  1  0  0  0  0
 15 16  2  0  0  0  0
 16 21  1  0  0  0  0
 17 16  1  0  0  0  0
 17 22  1  0  0  0  0
 18 17  2  0  0  0  0
 19 13  1  0  0  0  0
 20 14  1  0  0  0  0
 23 18  1  0  0  0  0
 23 24  2  0  0  0  0
 23 26  1  0  0  0  0
 25 23  2  0  0  0  0
 27 30  1  0  0  0  0
 28 27  1  0  0  0  0
 29 27  1  0  0  0  0
M  RAD  2  11   2  12   2
M  END
