Coordinates from ORCA-job Ph-N2-X-OTs-B3LYPG-6-31G_dp-scan-d09-49-n400
 OpenBabel08281821093D

 31 31  0  0  0  0  0  0  0  0999 V2000
   -0.0790    1.2382   -0.7173 C   0  0  0  0  0  0  0  0  0  0  0  0
    0.9436    1.3346   -1.6573 C   0  0  0  0  0  0  0  0  0  0  0  0
    0.6733    2.0066   -2.8584 C   0  0  0  0  0  0  0  0  0  0  0  0
   -0.5720    2.5943   -3.1165 C   0  0  0  0  0  0  0  0  0  0  0  0
   -1.5856    2.4651   -2.1726 C   0  0  0  0  0  0  0  0  0  0  0  0
   -1.3380    1.7891   -0.9744 C   0  0  0  0  0  0  0  0  0  0  0  0
    0.1095    0.7249    0.2199 H   0  0  0  0  0  0  0  0  0  0  0  0
    1.9240    0.9209   -1.4725 H   0  0  0  0  0  0  0  0  0  0  0  0
   -0.7280    3.1233   -4.0501 H   0  0  0  0  0  0  0  0  0  0  0  0
   -2.5612    2.8983   -2.3660 H   0  0  0  0  0  0  0  0  0  0  0  0
    1.6552    2.1836   -3.8515 N   0  0  0  0  0  0  0  0  0  0  0  0
    2.6289    1.7150   -4.2838 N   0  0  0  0  0  0  0  0  0  0  0  0
    5.9093    1.0256   -5.2731 C   0  0  0  0  0  0  0  0  0  0  0  0
    7.1722    1.6117   -5.1925 C   0  0  0  0  0  0  0  0  0  0  0  0
    8.1001    1.2048   -4.2244 C   0  0  0  0  0  0  0  0  0  0  0  0
    7.7297    0.1877   -3.3318 C   0  0  0  0  0  0  0  0  0  0  0  0
    6.4717   -0.4068   -3.3978 C   0  0  0  0  0  0  0  0  0  0  0  0
    5.5640    0.0217   -4.3684 C   0  0  0  0  0  0  0  0  0  0  0  0
    5.1979    1.3284   -6.0335 H   0  0  0  0  0  0  0  0  0  0  0  0
    7.4434    2.3940   -5.8970 H   0  0  0  0  0  0  0  0  0  0  0  0
    8.4393   -0.1460   -2.5785 H   0  0  0  0  0  0  0  0  0  0  0  0
    6.1936   -1.2059   -2.7190 H   0  0  0  0  0  0  0  0  0  0  0  0
    3.9331   -0.7206   -4.4434 S   0  0  0  0  0  0  0  0  0  0  0  0
    4.0372   -2.0733   -3.8871 O   0  0  0  0  0  0  0  0  0  0  0  0
    3.4195   -0.5269   -5.8035 O   0  0  0  0  0  0  0  0  0  0  0  0
    3.0761    0.1532   -3.4203 O   0  0  0  0  0  0  0  0  0  0  0  0
    9.4779    1.8206   -4.1620 C   0  0  0  0  0  0  0  0  0  0  0  0
   10.2138    1.1922   -4.6786 H   0  0  0  0  0  0  0  0  0  0  0  0
    9.4977    2.8049   -4.6377 H   0  0  0  0  0  0  0  0  0  0  0  0
    9.8194    1.9345   -3.1285 H   0  0  0  0  0  0  0  0  0  0  0  0
   -2.1272    1.6969   -0.2342 H   0  0  0  0  0  0  0  0  0  0  0  0
  1  7  1  0  0  0  0
  2  8  1  0  0  0  0
  2  1  2  0  0  0  0
  3  2  1  0  0  0  0
  4  3  2  0  0  0  0
  4  5  1  0  0  0  0
  5  6  2  0  0  0  0
  6  1  1  0  0  0  0
  6 31  1  0  0  0  0
  9  4  1  0  0  0  0
 10  5  1  0  0  0  0
 11  3  1  0  0  0  0
 12 11  2  0  0  0  0
 13 14  2  0  0  0  0
 13 18  1  0  0  0  0
 14 15  1  0  0  0  0
 15 27  1  0  0  0  0
 15 16  2  0  0  0  0
 16 21  1  0  0  0  0
 17 16  1  0  0  0  0
 17 22  1  0  0  0  0
 18 17  2  0  0  0  0
 19 13  1  0  0  0  0
 20 14  1  0  0  0  0
 23 18  1  0  0  0  0
 23 24  2  0  0  0  0
 23 26  1  0  0  0  0
 25 23  2  0  0  0  0
 27 30  1  0  0  0  0
 28 27  1  0  0  0  0
 29 27  1  0  0  0  0
M  RAD  2  12   2  26   2
M  END
