Coordinates from ORCA-job Ph-N2-X-OTs-B3LYPG-6-31G_dp-scan-d09-49-n400
 OpenBabel08281821093D

 31 31  0  0  0  0  0  0  0  0999 V2000
   -0.2168    1.0026   -0.8670 C   0  0  0  0  0  0  0  0  0  0  0  0
    0.8073    1.0411   -1.8092 C   0  0  0  0  0  0  0  0  0  0  0  0
    0.6949    1.9571   -2.8675 C   0  0  0  0  0  0  0  0  0  0  0  0
   -0.4003    2.8248   -2.9836 C   0  0  0  0  0  0  0  0  0  0  0  0
   -1.4166    2.7602   -2.0368 C   0  0  0  0  0  0  0  0  0  0  0  0
   -1.3233    1.8501   -0.9798 C   0  0  0  0  0  0  0  0  0  0  0  0
   -0.1499    0.3023   -0.0404 H   0  0  0  0  0  0  0  0  0  0  0  0
    1.6710    0.3954   -1.7430 H   0  0  0  0  0  0  0  0  0  0  0  0
   -0.4389    3.5226   -3.8131 H   0  0  0  0  0  0  0  0  0  0  0  0
   -2.2757    3.4180   -2.1196 H   0  0  0  0  0  0  0  0  0  0  0  0
    1.6768    2.0851   -3.8644 N   0  0  0  0  0  0  0  0  0  0  0  0
    2.6284    1.5880   -4.3143 N   0  0  0  0  0  0  0  0  0  0  0  0
    5.9131    0.9054   -5.3273 C   0  0  0  0  0  0  0  0  0  0  0  0
    7.1492    1.5490   -5.2663 C   0  0  0  0  0  0  0  0  0  0  0  0
    8.0594    1.2750   -4.2366 C   0  0  0  0  0  0  0  0  0  0  0  0
    7.6993    0.3330   -3.2606 C   0  0  0  0  0  0  0  0  0  0  0  0
    6.4692   -0.3182   -3.3072 C   0  0  0  0  0  0  0  0  0  0  0  0
    5.5782   -0.0225   -4.3413 C   0  0  0  0  0  0  0  0  0  0  0  0
    5.2152    1.1041   -6.1331 H   0  0  0  0  0  0  0  0  0  0  0  0
    7.4141    2.2708   -6.0348 H   0  0  0  0  0  0  0  0  0  0  0  0
    8.3957    0.1037   -2.4577 H   0  0  0  0  0  0  0  0  0  0  0  0
    6.2003   -1.0606   -2.5635 H   0  0  0  0  0  0  0  0  0  0  0  0
    3.9851   -0.8442   -4.3962 S   0  0  0  0  0  0  0  0  0  0  0  0
    4.1435   -2.1575   -3.7632 O   0  0  0  0  0  0  0  0  0  0  0  0
    3.4834   -0.7473   -5.7704 O   0  0  0  0  0  0  0  0  0  0  0  0
    3.0746    0.0355   -3.4284 O   0  0  0  0  0  0  0  0  0  0  0  0
    9.4102    1.9498   -4.1941 C   0  0  0  0  0  0  0  0  0  0  0  0
   10.1842    1.3089   -4.6342 H   0  0  0  0  0  0  0  0  0  0  0  0
    9.4065    2.8890   -4.7539 H   0  0  0  0  0  0  0  0  0  0  0  0
    9.7169    2.1668   -3.1664 H   0  0  0  0  0  0  0  0  0  0  0  0
   -2.1155    1.8026   -0.2381 H   0  0  0  0  0  0  0  0  0  0  0  0
  1  7  1  0  0  0  0
  2  8  1  0  0  0  0
  2  1  2  0  0  0  0
  3  2  1  0  0  0  0
  4  3  2  0  0  0  0
  4  5  1  0  0  0  0
  5  6  2  0  0  0  0
  6  1  1  0  0  0  0
  6 31  1  0  0  0  0
  9  4  1  0  0  0  0
 10  5  1  0  0  0  0
 11  3  1  0  0  0  0
 12 11  2  0  0  0  0
 13 14  2  0  0  0  0
 13 18  1  0  0  0  0
 14 15  1  0  0  0  0
 15 27  1  0  0  0  0
 15 16  2  0  0  0  0
 16 21  1  0  0  0  0
 17 16  1  0  0  0  0
 17 22  1  0  0  0  0
 18 17  2  0  0  0  0
 19 13  1  0  0  0  0
 20 14  1  0  0  0  0
 23 18  1  0  0  0  0
 23 24  2  0  0  0  0
 23 26  1  0  0  0  0
 25 23  2  0  0  0  0
 27 30  1  0  0  0  0
 28 27  1  0  0  0  0
 29 27  1  0  0  0  0
M  RAD  2  12   2  26   2
M  END
