Coordinates from ORCA-job Ph-N2-X-OTs-B3LYPG-6-31G_dp-scan-d09-49-n400
 OpenBabel08281821093D

 31 31  0  0  0  0  0  0  0  0999 V2000
   -0.6065    0.5287   -1.3581 C   0  0  0  0  0  0  0  0  0  0  0  0
    0.6234    0.9927   -1.8144 C   0  0  0  0  0  0  0  0  0  0  0  0
    0.6305    2.1718   -2.5774 C   0  0  0  0  0  0  0  0  0  0  0  0
   -0.5377    2.8841   -2.8802 C   0  0  0  0  0  0  0  0  0  0  0  0
   -1.7530    2.3958   -2.4144 C   0  0  0  0  0  0  0  0  0  0  0  0
   -1.7849    1.2211   -1.6559 C   0  0  0  0  0  0  0  0  0  0  0  0
   -0.6436   -0.3830   -0.7712 H   0  0  0  0  0  0  0  0  0  0  0  0
    1.5587    0.4864   -1.6105 H   0  0  0  0  0  0  0  0  0  0  0  0
   -0.4760    3.7911   -3.4711 H   0  0  0  0  0  0  0  0  0  0  0  0
   -2.6713    2.9266   -2.6414 H   0  0  0  0  0  0  0  0  0  0  0  0
    1.8302    2.6973   -3.0764 N   0  0  0  0  0  0  0  0  0  0  0  0
    2.9636    2.5666   -3.2220 N   0  0  0  0  0  0  0  0  0  0  0  0
    5.9059    1.1228   -5.0528 C   0  0  0  0  0  0  0  0  0  0  0  0
    7.2208    1.4755   -5.3577 C   0  0  0  0  0  0  0  0  0  0  0  0
    8.2896    1.0473   -4.5599 C   0  0  0  0  0  0  0  0  0  0  0  0
    8.0077    0.2499   -3.4399 C   0  0  0  0  0  0  0  0  0  0  0  0
    6.7008   -0.1121   -3.1239 C   0  0  0  0  0  0  0  0  0  0  0  0
    5.6524    0.3324   -3.9326 C   0  0  0  0  0  0  0  0  0  0  0  0
    5.0798    1.4416   -5.6785 H   0  0  0  0  0  0  0  0  0  0  0  0
    7.4203    2.0885   -6.2333 H   0  0  0  0  0  0  0  0  0  0  0  0
    8.8241   -0.0954   -2.8105 H   0  0  0  0  0  0  0  0  0  0  0  0
    6.4883   -0.7422   -2.2667 H   0  0  0  0  0  0  0  0  0  0  0  0
    3.9650   -0.1077   -3.5126 S   0  0  0  0  0  0  0  0  0  0  0  0
    3.9927   -1.4589   -2.9365 O   0  0  0  0  0  0  0  0  0  0  0  0
    3.1353    0.1456   -4.7049 O   0  0  0  0  0  0  0  0  0  0  0  0
    3.5725    0.8984   -2.3777 O   0  0  0  0  0  0  0  0  0  0  0  0
    9.7140    1.4048   -4.9128 C   0  0  0  0  0  0  0  0  0  0  0  0
   10.1930    0.5998   -5.4849 H   0  0  0  0  0  0  0  0  0  0  0  0
    9.7597    2.3111   -5.5239 H   0  0  0  0  0  0  0  0  0  0  0  0
   10.3197    1.5680   -4.0161 H   0  0  0  0  0  0  0  0  0  0  0  0
   -2.7357    0.8425   -1.2938 H   0  0  0  0  0  0  0  0  0  0  0  0
  1  7  1  0  0  0  0
  2  8  1  0  0  0  0
  2  1  2  0  0  0  0
  3  2  1  0  0  0  0
  4  3  2  0  0  0  0
  4  5  1  0  0  0  0
  5  6  2  0  0  0  0
  6  1  1  0  0  0  0
  6 31  1  0  0  0  0
  9  4  1  0  0  0  0
 10  5  1  0  0  0  0
 11  3  1  0  0  0  0
 12 11  2  0  0  0  0
 13 18  1  0  0  0  0
 14 13  2  0  0  0  0
 14 15  1  0  0  0  0
 15 16  2  0  0  0  0
 16 17  1  0  0  0  0
 16 21  1  0  0  0  0
 17 22  1  0  0  0  0
 18 23  1  0  0  0  0
 18 17  2  0  0  0  0
 19 13  1  0  0  0  0
 20 14  1  0  0  0  0
 23 24  2  0  0  0  0
 23 26  1  0  0  0  0
 25 23  2  0  0  0  0
 27 15  1  0  0  0  0
 27 30  1  0  0  0  0
 28 27  1  0  0  0  0
 29 27  1  0  0  0  0
M  RAD  2  12   2  26   2
M  END
