Coordinates from ORCA-job Ph-N2-X-OTs-B3LYPG-6-31G_dp-scan-d09-49-n400
 OpenBabel08281821093D

 31 31  0  0  0  0  0  0  0  0999 V2000
   -0.2855    0.3381   -1.3654 C   0  0  0  0  0  0  0  0  0  0  0  0
    0.7025    1.0080   -2.0820 C   0  0  0  0  0  0  0  0  0  0  0  0
    0.3397    2.2123   -2.7065 C   0  0  0  0  0  0  0  0  0  0  0  0
   -0.9537    2.7478   -2.6347 C   0  0  0  0  0  0  0  0  0  0  0  0
   -1.9151    2.0615   -1.9027 C   0  0  0  0  0  0  0  0  0  0  0  0
   -1.5799    0.8586   -1.2719 C   0  0  0  0  0  0  0  0  0  0  0  0
   -0.0371   -0.5999   -0.8807 H   0  0  0  0  0  0  0  0  0  0  0  0
    1.7110    0.6210   -2.1706 H   0  0  0  0  0  0  0  0  0  0  0  0
   -1.1803    3.6786   -3.1423 H   0  0  0  0  0  0  0  0  0  0  0  0
   -2.9219    2.4585   -1.8275 H   0  0  0  0  0  0  0  0  0  0  0  0
    1.2745    2.9344   -3.4618 N   0  0  0  0  0  0  0  0  0  0  0  0
    2.3452    3.0932   -3.8345 N   0  0  0  0  0  0  0  0  0  0  0  0
    6.1830    1.3645   -5.2046 C   0  0  0  0  0  0  0  0  0  0  0  0
    7.5664    1.4429   -5.3584 C   0  0  0  0  0  0  0  0  0  0  0  0
    8.4339    0.8313   -4.4427 C   0  0  0  0  0  0  0  0  0  0  0  0
    7.8766    0.1332   -3.3616 C   0  0  0  0  0  0  0  0  0  0  0  0
    6.4960    0.0449   -3.1948 C   0  0  0  0  0  0  0  0  0  0  0  0
    5.6546    0.6663   -4.1187 C   0  0  0  0  0  0  0  0  0  0  0  0
    5.5124    1.8252   -5.9216 H   0  0  0  0  0  0  0  0  0  0  0  0
    7.9795    1.9838   -6.2065 H   0  0  0  0  0  0  0  0  0  0  0  0
    8.5330   -0.3504   -2.6424 H   0  0  0  0  0  0  0  0  0  0  0  0
    6.0664   -0.5075   -2.3659 H   0  0  0  0  0  0  0  0  0  0  0  0
    3.8774    0.5936   -3.8893 S   0  0  0  0  0  0  0  0  0  0  0  0
    3.5786   -0.6673   -3.1818 O   0  0  0  0  0  0  0  0  0  0  0  0
    3.2439    0.8114   -5.2048 O   0  0  0  0  0  0  0  0  0  0  0  0
    3.5638    1.7824   -2.9382 O   0  0  0  0  0  0  0  0  0  0  0  0
    9.9311    0.8931   -4.6329 C   0  0  0  0  0  0  0  0  0  0  0  0
   10.2907    0.0365   -5.2177 H   0  0  0  0  0  0  0  0  0  0  0  0
   10.2304    1.7993   -5.1681 H   0  0  0  0  0  0  0  0  0  0  0  0
   10.4578    0.8748   -3.6744 H   0  0  0  0  0  0  0  0  0  0  0  0
   -2.3355    0.3210   -0.7071 H   0  0  0  0  0  0  0  0  0  0  0  0
  1  6  1  0  0  0  0
  1  7  1  0  0  0  0
  2  1  2  0  0  0  0
  3  4  2  0  0  0  0
  3  2  1  0  0  0  0
  4  5  1  0  0  0  0
  5 10  1  0  0  0  0
  5  6  2  0  0  0  0
  6 31  1  0  0  0  0
  8  2  1  0  0  0  0
  9  4  1  0  0  0  0
 11  3  1  0  0  0  0
 12 11  2  0  0  0  0
 13 18  1  0  0  0  0
 14 13  2  0  0  0  0
 14 15  1  0  0  0  0
 15 16  2  0  0  0  0
 16 17  1  0  0  0  0
 16 21  1  0  0  0  0
 17 22  1  0  0  0  0
 18 23  1  0  0  0  0
 18 17  2  0  0  0  0
 19 13  1  0  0  0  0
 20 14  1  0  0  0  0
 23 24  2  0  0  0  0
 23 26  1  0  0  0  0
 25 23  2  0  0  0  0
 27 15  1  0  0  0  0
 27 30  1  0  0  0  0
 28 27  1  0  0  0  0
 29 27  1  0  0  0  0
M  RAD  2  12   2  26   2
M  END
