Coordinates from ORCA-job Ph-N2-X-OTs-B3LYPG-6-31G_dp-scan-d09-49-n400
 OpenBabel08281821093D

 31 31  0  0  0  0  0  0  0  0999 V2000
   -0.3519    0.8473   -1.0176 C   0  0  0  0  0  0  0  0  0  0  0  0
    0.6860    0.8788   -1.9447 C   0  0  0  0  0  0  0  0  0  0  0  0
    0.7158    1.9410   -2.8640 C   0  0  0  0  0  0  0  0  0  0  0  0
   -0.2574    2.9508   -2.8611 C   0  0  0  0  0  0  0  0  0  0  0  0
   -1.2843    2.8978   -1.9255 C   0  0  0  0  0  0  0  0  0  0  0  0
   -1.3304    1.8462   -1.0056 C   0  0  0  0  0  0  0  0  0  0  0  0
   -0.3957    0.0341   -0.2998 H   0  0  0  0  0  0  0  0  0  0  0  0
    1.4539    0.1186   -1.9764 H   0  0  0  0  0  0  0  0  0  0  0  0
   -0.1923    3.7518   -3.5897 H   0  0  0  0  0  0  0  0  0  0  0  0
   -2.0455    3.6715   -1.9129 H   0  0  0  0  0  0  0  0  0  0  0  0
    1.7129    2.0688   -3.8458 N   0  0  0  0  0  0  0  0  0  0  0  0
    2.6593    1.5580   -4.2933 N   0  0  0  0  0  0  0  0  0  0  0  0
    5.9233    0.8165   -5.3573 C   0  0  0  0  0  0  0  0  0  0  0  0
    7.1470    1.4855   -5.3249 C   0  0  0  0  0  0  0  0  0  0  0  0
    8.0408    1.3117   -4.2597 C   0  0  0  0  0  0  0  0  0  0  0  0
    7.6770    0.4441   -3.2181 C   0  0  0  0  0  0  0  0  0  0  0  0
    6.4598   -0.2321   -3.2359 C   0  0  0  0  0  0  0  0  0  0  0  0
    5.5851   -0.0366   -4.3071 C   0  0  0  0  0  0  0  0  0  0  0  0
    5.2378    0.9391   -6.1885 H   0  0  0  0  0  0  0  0  0  0  0  0
    7.4149    2.1484   -6.1438 H   0  0  0  0  0  0  0  0  0  0  0  0
    8.3601    0.2926   -2.3858 H   0  0  0  0  0  0  0  0  0  0  0  0
    6.1889   -0.9166   -2.4394 H   0  0  0  0  0  0  0  0  0  0  0  0
    4.0093   -0.8914   -4.3276 S   0  0  0  0  0  0  0  0  0  0  0  0
    4.1867   -2.1680   -3.6283 O   0  0  0  0  0  0  0  0  0  0  0  0
    3.5096   -0.8689   -5.7055 O   0  0  0  0  0  0  0  0  0  0  0  0
    3.0794    0.0109   -3.4002 O   0  0  0  0  0  0  0  0  0  0  0  0
    9.3787    2.0127   -4.2462 C   0  0  0  0  0  0  0  0  0  0  0  0
   10.1690    1.3591   -4.6360 H   0  0  0  0  0  0  0  0  0  0  0  0
    9.3653    2.9142   -4.8652 H   0  0  0  0  0  0  0  0  0  0  0  0
    9.6694    2.3005   -3.2315 H   0  0  0  0  0  0  0  0  0  0  0  0
   -2.1331    1.8045   -0.2750 H   0  0  0  0  0  0  0  0  0  0  0  0
  1  6  1  0  0  0  0
  1  7  1  0  0  0  0
  2  1  2  0  0  0  0
  3  4  2  0  0  0  0
  3  2  1  0  0  0  0
  4  5  1  0  0  0  0
  5 10  1  0  0  0  0
  5  6  2  0  0  0  0
  6 31  1  0  0  0  0
  8  2  1  0  0  0  0
  9  4  1  0  0  0  0
 11  3  1  0  0  0  0
 12 11  2  0  0  0  0
 13 14  2  0  0  0  0
 13 18  1  0  0  0  0
 14 15  1  0  0  0  0
 15 27  1  0  0  0  0
 15 16  2  0  0  0  0
 16 21  1  0  0  0  0
 17 16  1  0  0  0  0
 17 22  1  0  0  0  0
 18 17  2  0  0  0  0
 19 13  1  0  0  0  0
 20 14  1  0  0  0  0
 23 18  1  0  0  0  0
 23 24  2  0  0  0  0
 23 26  1  0  0  0  0
 25 23  2  0  0  0  0
 27 30  1  0  0  0  0
 28 27  1  0  0  0  0
 29 27  1  0  0  0  0
M  RAD  2  12   2  26   2
M  END
