Coordinates from ORCA-job Ph-N2-X-OTs-B3LYPG-6-31G_dp-scan-d09-49-n400
 OpenBabel08281821093D

 31 31  0  0  0  0  0  0  0  0999 V2000
    0.0072    0.2513   -1.3938 C   0  0  0  0  0  0  0  0  0  0  0  0
    0.7678    0.9447   -2.3339 C   0  0  0  0  0  0  0  0  0  0  0  0
    0.2259    2.1445   -2.8204 C   0  0  0  0  0  0  0  0  0  0  0  0
   -1.0197    2.6510   -2.4206 C   0  0  0  0  0  0  0  0  0  0  0  0
   -1.7428    1.9398   -1.4721 C   0  0  0  0  0  0  0  0  0  0  0  0
   -1.2284    0.7413   -0.9623 C   0  0  0  0  0  0  0  0  0  0  0  0
    0.3904   -0.6844   -1.0010 H   0  0  0  0  0  0  0  0  0  0  0  0
    1.7262    0.5581   -2.6917 H   0  0  0  0  0  0  0  0  0  0  0  0
   -1.3890    3.5788   -2.8425 H   0  0  0  0  0  0  0  0  0  0  0  0
   -2.7047    2.3111   -1.1365 H   0  0  0  0  0  0  0  0  0  0  0  0
    0.9289    2.8852   -3.7786 N   0  0  0  0  0  0  0  0  0  0  0  0
    1.8558    3.1879   -4.3659 N   0  0  0  0  0  0  0  0  0  0  0  0
    6.3152    1.3756   -5.3845 C   0  0  0  0  0  0  0  0  0  0  0  0
    7.7082    1.3266   -5.3629 C   0  0  0  0  0  0  0  0  0  0  0  0
    8.3974    0.7548   -4.2843 C   0  0  0  0  0  0  0  0  0  0  0  0
    7.6509    0.2294   -3.2197 C   0  0  0  0  0  0  0  0  0  0  0  0
    6.2580    0.2705   -3.2268 C   0  0  0  0  0  0  0  0  0  0  0  0
    5.5964    0.8476   -4.3116 C   0  0  0  0  0  0  0  0  0  0  0  0
    5.7814    1.8041   -6.2256 H   0  0  0  0  0  0  0  0  0  0  0  0
    8.2696    1.7353   -6.1997 H   0  0  0  0  0  0  0  0  0  0  0  0
    8.1678   -0.2197   -2.3750 H   0  0  0  0  0  0  0  0  0  0  0  0
    5.6814   -0.1495   -2.4101 H   0  0  0  0  0  0  0  0  0  0  0  0
    3.8059    0.9451   -4.3182 S   0  0  0  0  0  0  0  0  0  0  0  0
    3.3082   -0.2166   -3.5340 O   0  0  0  0  0  0  0  0  0  0  0  0
    3.3615    1.0324   -5.7219 O   0  0  0  0  0  0  0  0  0  0  0  0
    3.5034    2.2451   -3.5484 O   0  0  0  0  0  0  0  0  0  0  0  0
    9.9057    0.6752   -4.2837 C   0  0  0  0  0  0  0  0  0  0  0  0
   10.2514   -0.2717   -4.7180 H   0  0  0  0  0  0  0  0  0  0  0  0
   10.3505    1.4832   -4.8719 H   0  0  0  0  0  0  0  0  0  0  0  0
   10.3101    0.7315   -3.2686 H   0  0  0  0  0  0  0  0  0  0  0  0
   -1.8011    0.1828   -0.2279 H   0  0  0  0  0  0  0  0  0  0  0  0
  1  7  1  0  0  0  0
  1  6  1  0  0  0  0
  2  1  2  0  0  0  0
  3  4  2  0  0  0  0
  3  2  1  0  0  0  0
  4  5  1  0  0  0  0
  5 10  1  0  0  0  0
  5  6  2  0  0  0  0
  6 31  1  0  0  0  0
  8  2  1  0  0  0  0
  9  4  1  0  0  0  0
 11  3  1  0  0  0  0
 12 11  2  0  0  0  0
 13 14  2  0  0  0  0
 13 18  1  0  0  0  0
 14 15  1  0  0  0  0
 15 27  1  0  0  0  0
 15 16  2  0  0  0  0
 16 21  1  0  0  0  0
 17 16  1  0  0  0  0
 17 22  1  0  0  0  0
 18 17  2  0  0  0  0
 19 13  1  0  0  0  0
 20 14  1  0  0  0  0
 23 18  1  0  0  0  0
 23 26  2  0  0  0  0
 23 24  1  0  0  0  0
 25 23  2  0  0  0  0
 27 30  1  0  0  0  0
 28 27  1  0  0  0  0
 29 27  1  0  0  0  0
M  RAD  2  12   2  24   2
M  END
