Coordinates from ORCA-job Ph-N2-X-OTs-B3LYPG-6-31G_dp-scan-d09-49-n400
 OpenBabel08281821093D

 31 31  0  0  0  0  0  0  0  0999 V2000
   -0.3546    0.3567   -1.3949 C   0  0  0  0  0  0  0  0  0  0  0  0
    0.7128    1.0489   -1.9593 C   0  0  0  0  0  0  0  0  0  0  0  0
    0.4204    2.2444   -2.6358 C   0  0  0  0  0  0  0  0  0  0  0  0
   -0.8804    2.7525   -2.7559 C   0  0  0  0  0  0  0  0  0  0  0  0
   -1.9250    2.0414   -2.1777 C   0  0  0  0  0  0  0  0  0  0  0  0
   -1.6604    0.8460   -1.5007 C   0  0  0  0  0  0  0  0  0  0  0  0
   -0.1605   -0.5750   -0.8746 H   0  0  0  0  0  0  0  0  0  0  0  0
    1.7337    0.6913   -1.8959 H   0  0  0  0  0  0  0  0  0  0  0  0
   -1.0491    3.6795   -3.2922 H   0  0  0  0  0  0  0  0  0  0  0  0
   -2.9408    2.4140   -2.2567 H   0  0  0  0  0  0  0  0  0  0  0  0
    1.4421    2.9876   -3.2410 N   0  0  0  0  0  0  0  0  0  0  0  0
    2.5471    3.1375   -3.4980 N   0  0  0  0  0  0  0  0  0  0  0  0
    6.0943    1.3470   -5.1093 C   0  0  0  0  0  0  0  0  0  0  0  0
    7.4609    1.4436   -5.3661 C   0  0  0  0  0  0  0  0  0  0  0  0
    8.4021    0.8403   -4.5199 C   0  0  0  0  0  0  0  0  0  0  0  0
    7.9365    0.1323   -3.4029 C   0  0  0  0  0  0  0  0  0  0  0  0
    6.5732    0.0256   -3.1336 C   0  0  0  0  0  0  0  0  0  0  0  0
    5.6574    0.6390   -3.9893 C   0  0  0  0  0  0  0  0  0  0  0  0
    5.3656    1.8005   -5.7720 H   0  0  0  0  0  0  0  0  0  0  0  0
    7.8029    1.9921   -6.2406 H   0  0  0  0  0  0  0  0  0  0  0  0
    8.6514   -0.3447   -2.7372 H   0  0  0  0  0  0  0  0  0  0  0  0
    6.2140   -0.5352   -2.2773 H   0  0  0  0  0  0  0  0  0  0  0  0
    3.9033    0.5404   -3.6280 S   0  0  0  0  0  0  0  0  0  0  0  0
    3.6702   -0.7416   -2.9370 O   0  0  0  0  0  0  0  0  0  0  0  0
    3.1722    0.7906   -4.8870 O   0  0  0  0  0  0  0  0  0  0  0  0
    3.6439    1.7005   -2.6247 O   0  0  0  0  0  0  0  0  0  0  0  0
    9.8794    0.9233   -4.8238 C   0  0  0  0  0  0  0  0  0  0  0  0
   10.1831    0.1364   -5.5260 H   0  0  0  0  0  0  0  0  0  0  0  0
   10.1414    1.8826   -5.2810 H   0  0  0  0  0  0  0  0  0  0  0  0
   10.4818    0.8033   -3.9188 H   0  0  0  0  0  0  0  0  0  0  0  0
   -2.4795    0.2902   -1.0548 H   0  0  0  0  0  0  0  0  0  0  0  0
  1  7  1  0  0  0  0
  2  8  1  0  0  0  0
  2  1  2  0  0  0  0
  3  2  1  0  0  0  0
  4  3  2  0  0  0  0
  4  5  1  0  0  0  0
  5  6  2  0  0  0  0
  6  1  1  0  0  0  0
  6 31  1  0  0  0  0
  9  4  1  0  0  0  0
 10  5  1  0  0  0  0
 11  3  1  0  0  0  0
 12 11  2  0  0  0  0
 13 18  1  0  0  0  0
 14 13  2  0  0  0  0
 14 15  1  0  0  0  0
 15 16  2  0  0  0  0
 16 17  1  0  0  0  0
 16 21  1  0  0  0  0
 17 22  1  0  0  0  0
 18 23  1  0  0  0  0
 18 17  2  0  0  0  0
 19 13  1  0  0  0  0
 20 14  1  0  0  0  0
 23 24  2  0  0  0  0
 23 26  1  0  0  0  0
 25 23  2  0  0  0  0
 27 15  1  0  0  0  0
 27 30  1  0  0  0  0
 28 27  1  0  0  0  0
 29 27  1  0  0  0  0
M  RAD  2  12   2  26   2
M  END
