Coordinates from ORCA-job Ph-N2-X-OTs-B3LYPG-6-31G_dp-scan-d09-49-n400
 OpenBabel08281821093D

 31 31  0  0  0  0  0  0  0  0999 V2000
   -0.4613    0.4208   -1.3937 C   0  0  0  0  0  0  0  0  0  0  0  0
    0.6905    1.0569   -1.8461 C   0  0  0  0  0  0  0  0  0  0  0  0
    0.5285    2.2404   -2.5846 C   0  0  0  0  0  0  0  0  0  0  0  0
   -0.7274    2.7930   -2.8688 C   0  0  0  0  0  0  0  0  0  0  0  0
   -1.8604    2.1347   -2.4054 C   0  0  0  0  0  0  0  0  0  0  0  0
   -1.7253    0.9518   -1.6708 C   0  0  0  0  0  0  0  0  0  0  0  0
   -0.3680   -0.4997   -0.8274 H   0  0  0  0  0  0  0  0  0  0  0  0
    1.6860    0.6753   -1.6550 H   0  0  0  0  0  0  0  0  0  0  0  0
   -0.7950    3.7107   -3.4421 H   0  0  0  0  0  0  0  0  0  0  0  0
   -2.8444    2.5392   -2.6167 H   0  0  0  0  0  0  0  0  0  0  0  0
    1.6449    2.9286   -3.0770 N   0  0  0  0  0  0  0  0  0  0  0  0
    2.7789    2.9849   -3.2332 N   0  0  0  0  0  0  0  0  0  0  0  0
    5.9841    1.2790   -5.0319 C   0  0  0  0  0  0  0  0  0  0  0  0
    7.3268    1.4641   -5.3578 C   0  0  0  0  0  0  0  0  0  0  0  0
    8.3467    0.9097   -4.5716 C   0  0  0  0  0  0  0  0  0  0  0  0
    7.9850    0.1601   -3.4431 C   0  0  0  0  0  0  0  0  0  0  0  0
    6.6471   -0.0350   -3.1053 C   0  0  0  0  0  0  0  0  0  0  0  0
    5.6511    0.5313   -3.9021 C   0  0  0  0  0  0  0  0  0  0  0  0
    5.1946    1.6938   -5.6486 H   0  0  0  0  0  0  0  0  0  0  0  0
    7.5876    2.0434   -6.2403 H   0  0  0  0  0  0  0  0  0  0  0  0
    8.7619   -0.2802   -2.8235 H   0  0  0  0  0  0  0  0  0  0  0  0
    6.3698   -0.6289   -2.2409 H   0  0  0  0  0  0  0  0  0  0  0  0
    3.9284    0.3120   -3.4521 S   0  0  0  0  0  0  0  0  0  0  0  0
    3.8072   -1.0082   -2.8127 O   0  0  0  0  0  0  0  0  0  0  0  0
    3.1175    0.5868   -4.6553 O   0  0  0  0  0  0  0  0  0  0  0  0
    3.6585    1.4085   -2.3766 O   0  0  0  0  0  0  0  0  0  0  0  0
    9.7979    1.0876   -4.9507 C   0  0  0  0  0  0  0  0  0  0  0  0
   10.1070    0.3398   -5.6920 H   0  0  0  0  0  0  0  0  0  0  0  0
    9.9791    2.0731   -5.3912 H   0  0  0  0  0  0  0  0  0  0  0  0
   10.4547    0.9780   -4.0829 H   0  0  0  0  0  0  0  0  0  0  0  0
   -2.6127    0.4394   -1.3125 H   0  0  0  0  0  0  0  0  0  0  0  0
  1  7  1  0  0  0  0
  2  8  1  0  0  0  0
  2  1  2  0  0  0  0
  3  2  1  0  0  0  0
  4  3  2  0  0  0  0
  4  5  1  0  0  0  0
  5  6  2  0  0  0  0
  6  1  1  0  0  0  0
  6 31  1  0  0  0  0
  9  4  1  0  0  0  0
 10  5  1  0  0  0  0
 11  3  1  0  0  0  0
 12 11  2  0  0  0  0
 13 18  1  0  0  0  0
 14 13  2  0  0  0  0
 14 15  1  0  0  0  0
 15 16  2  0  0  0  0
 16 17  1  0  0  0  0
 16 21  1  0  0  0  0
 17 22  1  0  0  0  0
 18 23  1  0  0  0  0
 18 17  2  0  0  0  0
 19 13  1  0  0  0  0
 20 14  1  0  0  0  0
 23 24  2  0  0  0  0
 23 26  1  0  0  0  0
 25 23  2  0  0  0  0
 27 15  1  0  0  0  0
 27 30  1  0  0  0  0
 28 27  1  0  0  0  0
 29 27  1  0  0  0  0
M  RAD  2  12   2  26   2
M  END
