Coordinates from ORCA-job Ph-N2-X-OTs-B3LYPG-6-31G_dp-scan-d09-49-n400
 OpenBabel08281821093D

 31 31  0  0  0  0  0  0  0  0999 V2000
    0.3033    0.1500   -1.5122 C   0  0  0  0  0  0  0  0  0  0  0  0
    0.8918    0.9260   -2.5136 C   0  0  0  0  0  0  0  0  0  0  0  0
    0.2123    2.1125   -2.8313 C   0  0  0  0  0  0  0  0  0  0  0  0
   -0.9858    2.5408   -2.2341 C   0  0  0  0  0  0  0  0  0  0  0  0
   -1.5249    1.7392   -1.2399 C   0  0  0  0  0  0  0  0  0  0  0  0
   -0.8787    0.5460   -0.8828 C   0  0  0  0  0  0  0  0  0  0  0  0
    0.7819   -0.7814   -1.2264 H   0  0  0  0  0  0  0  0  0  0  0  0
    1.8458    0.6216   -3.0614 H   0  0  0  0  0  0  0  0  0  0  0  0
   -1.4546    3.4691   -2.5412 H   0  0  0  0  0  0  0  0  0  0  0  0
   -2.4444    2.0347   -0.7468 H   0  0  0  0  0  0  0  0  0  0  0  0
    0.7576    2.9238   -3.8259 N   0  0  0  0  0  0  0  0  0  0  0  0
    1.4719    3.4031   -4.5537 N   0  0  0  0  0  0  0  0  0  0  0  0
    6.3730    1.2615   -5.5372 C   0  0  0  0  0  0  0  0  0  0  0  0
    7.7486    1.0986   -5.3708 C   0  0  0  0  0  0  0  0  0  0  0  0
    8.2875    0.6947   -4.1427 C   0  0  0  0  0  0  0  0  0  0  0  0
    7.4077    0.4548   -3.0756 C   0  0  0  0  0  0  0  0  0  0  0  0
    6.0329    0.6134   -3.2268 C   0  0  0  0  0  0  0  0  0  0  0  0
    5.5206    1.0193   -4.4611 C   0  0  0  0  0  0  0  0  0  0  0  0
    5.9526    1.5627   -6.4904 H   0  0  0  0  0  0  0  0  0  0  0  0
    8.4136    1.2865   -6.2101 H   0  0  0  0  0  0  0  0  0  0  0  0
    7.8072    0.1363   -2.1156 H   0  0  0  0  0  0  0  0  0  0  0  0
    5.3554    0.4121   -2.4043 H   0  0  0  0  0  0  0  0  0  0  0  0
    3.7567    1.2767   -4.6641 S   0  0  0  0  0  0  0  0  0  0  0  0
    3.0913    0.2118   -3.8334 O   0  0  0  0  0  0  0  0  0  0  0  0
    3.4568    1.2168   -6.1049 O   0  0  0  0  0  0  0  0  0  0  0  0
    3.4944    2.6384   -4.0455 O   0  0  0  0  0  0  0  0  0  0  0  0
    9.7749    0.4942   -3.9731 C   0  0  0  0  0  0  0  0  0  0  0  0
   10.0362   -0.5709   -3.9974 H   0  0  0  0  0  0  0  0  0  0  0  0
   10.3392    0.9889   -4.7684 H   0  0  0  0  0  0  0  0  0  0  0  0
   10.1253    0.8892   -3.0138 H   0  0  0  0  0  0  0  0  0  0  0  0
   -1.3107   -0.0797   -0.1070 H   0  0  0  0  0  0  0  0  0  0  0  0
  1  7  1  0  0  0  0
  1  6  2  0  0  0  0
  2  1  1  0  0  0  0
  3  2  2  0  0  0  0
  3  4  1  0  0  0  0
  4  5  2  0  0  0  0
  5  6  1  0  0  0  0
  5 10  1  0  0  0  0
  6 31  1  0  0  0  0
  8  2  1  0  0  0  0
  9  4  1  0  0  0  0
 11  3  1  0  0  0  0
 12 11  1  0  0  0  0
 13 14  2  0  0  0  0
 13 18  1  0  0  0  0
 14 15  1  0  0  0  0
 15 27  1  0  0  0  0
 15 16  2  0  0  0  0
 16 21  1  0  0  0  0
 17 16  1  0  0  0  0
 17 22  1  0  0  0  0
 18 17  2  0  0  0  0
 19 13  1  0  0  0  0
 20 14  1  0  0  0  0
 23 18  1  0  0  0  0
 23 26  2  0  0  0  0
 23 24  1  0  0  0  0
 25 23  2  0  0  0  0
 27 30  1  0  0  0  0
 28 27  1  0  0  0  0
 29 27  1  0  0  0  0
M  RAD  3  11   2  12   3  24   2
M  END
