Coordinates from ORCA-job Ph-N2-X-OTs-B3LYPG-6-31G_dp-scan-d09-49-n400
 OpenBabel08281821093D

 31 31  0  0  0  0  0  0  0  0999 V2000
   -0.5363    0.4600   -1.3970 C   0  0  0  0  0  0  0  0  0  0  0  0
    0.6602    1.0259   -1.8259 C   0  0  0  0  0  0  0  0  0  0  0  0
    0.5851    2.2154   -2.5689 C   0  0  0  0  0  0  0  0  0  0  0  0
   -0.6299    2.8408   -2.8788 C   0  0  0  0  0  0  0  0  0  0  0  0
   -1.8096    2.2514   -2.4396 C   0  0  0  0  0  0  0  0  0  0  0  0
   -1.7605    1.0642   -1.7016 C   0  0  0  0  0  0  0  0  0  0  0  0
   -0.5101   -0.4627   -0.8271 H   0  0  0  0  0  0  0  0  0  0  0  0
    1.6286    0.5896   -1.6142 H   0  0  0  0  0  0  0  0  0  0  0  0
   -0.6307    3.7602   -3.4534 H   0  0  0  0  0  0  0  0  0  0  0  0
   -2.7631    2.7132   -2.6719 H   0  0  0  0  0  0  0  0  0  0  0  0
    1.7495    2.8372   -3.0385 N   0  0  0  0  0  0  0  0  0  0  0  0
    2.8892    2.8110   -3.1718 N   0  0  0  0  0  0  0  0  0  0  0  0
    5.9361    1.2033   -5.0299 C   0  0  0  0  0  0  0  0  0  0  0  0
    7.2654    1.4637   -5.3610 C   0  0  0  0  0  0  0  0  0  0  0  0
    8.3176    0.9713   -4.5769 C   0  0  0  0  0  0  0  0  0  0  0  0
    8.0029    0.2056   -3.4446 C   0  0  0  0  0  0  0  0  0  0  0  0
    6.6798   -0.0648   -3.1022 C   0  0  0  0  0  0  0  0  0  0  0  0
    5.6500    0.4415   -3.8971 C   0  0  0  0  0  0  0  0  0  0  0  0
    5.1222    1.5714   -5.6444 H   0  0  0  0  0  0  0  0  0  0  0  0
    7.4899    2.0542   -6.2461 H   0  0  0  0  0  0  0  0  0  0  0  0
    8.8055   -0.1876   -2.8260 H   0  0  0  0  0  0  0  0  0  0  0  0
    6.4406   -0.6708   -2.2347 H   0  0  0  0  0  0  0  0  0  0  0  0
    3.9443    0.1236   -3.4413 S   0  0  0  0  0  0  0  0  0  0  0  0
    3.8934   -1.2172   -2.8394 O   0  0  0  0  0  0  0  0  0  0  0  0
    3.1114    0.3998   -4.6280 O   0  0  0  0  0  0  0  0  0  0  0  0
    3.6340    1.1756   -2.3279 O   0  0  0  0  0  0  0  0  0  0  0  0
    9.7552    1.2297   -4.9613 C   0  0  0  0  0  0  0  0  0  0  0  0
   10.1204    0.4662   -5.6600 H   0  0  0  0  0  0  0  0  0  0  0  0
    9.8695    2.2001   -5.4541 H   0  0  0  0  0  0  0  0  0  0  0  0
   10.4129    1.2127   -4.0871 H   0  0  0  0  0  0  0  0  0  0  0  0
   -2.6841    0.6063   -1.3613 H   0  0  0  0  0  0  0  0  0  0  0  0
  1  7  1  0  0  0  0
  2  8  1  0  0  0  0
  2  1  2  0  0  0  0
  3  2  1  0  0  0  0
  4  3  2  0  0  0  0
  4  5  1  0  0  0  0
  5  6  2  0  0  0  0
  6  1  1  0  0  0  0
  6 31  1  0  0  0  0
  9  4  1  0  0  0  0
 10  5  1  0  0  0  0
 11  3  1  0  0  0  0
 12 11  2  0  0  0  0
 13 18  1  0  0  0  0
 14 13  2  0  0  0  0
 14 15  1  0  0  0  0
 15 16  2  0  0  0  0
 16 17  1  0  0  0  0
 16 21  1  0  0  0  0
 17 22  1  0  0  0  0
 18 23  1  0  0  0  0
 18 17  2  0  0  0  0
 19 13  1  0  0  0  0
 20 14  1  0  0  0  0
 23 24  2  0  0  0  0
 23 26  1  0  0  0  0
 25 23  2  0  0  0  0
 27 15  1  0  0  0  0
 27 30  1  0  0  0  0
 28 27  1  0  0  0  0
 29 27  1  0  0  0  0
M  RAD  2  12   2  26   2
M  END
