Coordinates from ORCA-job Ph-N2-X-OTs-B3LYPG-6-31G_dp-scan-d09-49-n400
 OpenBabel08281821093D

 31 31  0  0  0  0  0  0  0  0999 V2000
    0.4867   -0.0680   -2.1209 C   0  0  0  0  0  0  0  0  0  0  0  0
    0.9856    1.0032   -2.8933 C   0  0  0  0  0  0  0  0  0  0  0  0
    0.2795    2.1933   -2.6444 C   0  0  0  0  0  0  0  0  0  0  0  0
   -0.8062    2.4015   -1.7575 C   0  0  0  0  0  0  0  0  0  0  0  0
   -1.2289    1.3000   -1.0426 C   0  0  0  0  0  0  0  0  0  0  0  0
   -0.5772    0.0632   -1.2305 C   0  0  0  0  0  0  0  0  0  0  0  0
    0.9552   -1.0442   -2.2282 H   0  0  0  0  0  0  0  0  0  0  0  0
    2.1373    0.8355   -3.8363 H   0  0  0  0  0  0  0  0  0  0  0  0
   -1.2737    3.3754   -1.6500 H   0  0  0  0  0  0  0  0  0  0  0  0
   -2.0558    1.3874   -0.3457 H   0  0  0  0  0  0  0  0  0  0  0  0
    0.6913    3.3061   -3.3672 N   0  0  0  0  0  0  0  0  0  0  0  0
    1.0615    4.1706   -3.9661 N   0  0  0  0  0  0  0  0  0  0  0  0
    6.2350    0.6567   -5.5254 C   0  0  0  0  0  0  0  0  0  0  0  0
    7.5356    0.2640   -5.2125 C   0  0  0  0  0  0  0  0  0  0  0  0
    8.1009    0.5546   -3.9636 C   0  0  0  0  0  0  0  0  0  0  0  0
    7.3283    1.2624   -3.0307 C   0  0  0  0  0  0  0  0  0  0  0  0
    6.0264    1.6597   -3.3270 C   0  0  0  0  0  0  0  0  0  0  0  0
    5.4849    1.3495   -4.5752 C   0  0  0  0  0  0  0  0  0  0  0  0
    5.8064    0.4484   -6.4995 H   0  0  0  0  0  0  0  0  0  0  0  0
    8.1246   -0.2696   -5.9542 H   0  0  0  0  0  0  0  0  0  0  0  0
    7.7549    1.5123   -2.0624 H   0  0  0  0  0  0  0  0  0  0  0  0
    5.4364    2.2227   -2.6121 H   0  0  0  0  0  0  0  0  0  0  0  0
    3.8071    1.8387   -4.9659 S   0  0  0  0  0  0  0  0  0  0  0  0
    2.9627    0.6017   -4.5095 O   0  0  0  0  0  0  0  0  0  0  0  0
    3.7220    2.0122   -6.4187 O   0  0  0  0  0  0  0  0  0  0  0  0
    3.4680    2.9944   -4.1042 O   0  0  0  0  0  0  0  0  0  0  0  0
    9.5023    0.1067   -3.6214 C   0  0  0  0  0  0  0  0  0  0  0  0
    9.4876   -0.8180   -3.0309 H   0  0  0  0  0  0  0  0  0  0  0  0
   10.0911   -0.0894   -4.5219 H   0  0  0  0  0  0  0  0  0  0  0  0
   10.0297    0.8607   -3.0282 H   0  0  0  0  0  0  0  0  0  0  0  0
   -0.9198   -0.8006   -0.6660 H   0  0  0  0  0  0  0  0  0  0  0  0
  1  6  2  0  0  0  0
  2  3  2  0  0  0  0
  2  1  1  0  0  0  0
  3  4  1  0  0  0  0
  4  9  1  0  0  0  0
  4  5  2  0  0  0  0
  5 10  1  0  0  0  0
  6  5  1  0  0  0  0
  6 31  1  0  0  0  0
  7  1  1  0  0  0  0
 11  3  1  0  0  0  0
 12 11  1  0  0  0  0
 13 14  2  0  0  0  0
 13 18  1  0  0  0  0
 14 15  1  0  0  0  0
 15 27  1  0  0  0  0
 15 16  2  0  0  0  0
 16 21  1  0  0  0  0
 17 16  1  0  0  0  0
 17 22  1  0  0  0  0
 18 17  2  0  0  0  0
 19 13  1  0  0  0  0
 20 14  1  0  0  0  0
 23 18  1  0  0  0  0
 23 24  1  0  0  0  0
 23 26  2  0  0  0  0
 24  8  1  0  0  0  0
 25 23  2  0  0  0  0
 27 28  1  0  0  0  0
 27 30  1  0  0  0  0
 29 27  1  0  0  0  0
M  RAD  3   2   2  11   2  12   3
M  END
