Coordinates from ORCA-job Ph-N2-X-OTs-B3LYPG-6-31G_dp-scan-d09-49-n400
 OpenBabel08281821093D

 31 31  0  0  0  0  0  0  0  0999 V2000
   -0.0706    1.2365   -0.7197 C   0  0  0  0  0  0  0  0  0  0  0  0
    0.9469    1.3268   -1.6659 C   0  0  0  0  0  0  0  0  0  0  0  0
    0.6742    2.0029   -2.8642 C   0  0  0  0  0  0  0  0  0  0  0  0
   -0.5683    2.6002   -3.1137 C   0  0  0  0  0  0  0  0  0  0  0  0
   -1.5769    2.4772   -2.1636 C   0  0  0  0  0  0  0  0  0  0  0  0
   -1.3270    1.7975   -0.9680 C   0  0  0  0  0  0  0  0  0  0  0  0
    0.1197    0.7200    0.2154 H   0  0  0  0  0  0  0  0  0  0  0  0
    1.9250    0.9047   -1.4884 H   0  0  0  0  0  0  0  0  0  0  0  0
   -0.7261    3.1318   -4.0455 H   0  0  0  0  0  0  0  0  0  0  0  0
   -2.5504    2.9180   -2.3502 H   0  0  0  0  0  0  0  0  0  0  0  0
    1.6511    2.1741   -3.8633 N   0  0  0  0  0  0  0  0  0  0  0  0
    2.6212    1.7015   -4.2998 N   0  0  0  0  0  0  0  0  0  0  0  0
    5.9081    1.0206   -5.2763 C   0  0  0  0  0  0  0  0  0  0  0  0
    7.1688    1.6110   -5.1918 C   0  0  0  0  0  0  0  0  0  0  0  0
    8.0943    1.2088   -4.2195 C   0  0  0  0  0  0  0  0  0  0  0  0
    7.7238    0.1919   -3.3266 C   0  0  0  0  0  0  0  0  0  0  0  0
    6.4681   -0.4068   -3.3965 C   0  0  0  0  0  0  0  0  0  0  0  0
    5.5627    0.0171   -4.3712 C   0  0  0  0  0  0  0  0  0  0  0  0
    5.1987    1.3199   -6.0399 H   0  0  0  0  0  0  0  0  0  0  0  0
    7.4402    2.3930   -5.8966 H   0  0  0  0  0  0  0  0  0  0  0  0
    8.4316   -0.1382   -2.5701 H   0  0  0  0  0  0  0  0  0  0  0  0
    6.1899   -1.2057   -2.7174 H   0  0  0  0  0  0  0  0  0  0  0  0
    3.9345   -0.7307   -4.4512 S   0  0  0  0  0  0  0  0  0  0  0  0
    4.0408   -2.0819   -3.8919 O   0  0  0  0  0  0  0  0  0  0  0  0
    3.4256   -0.5412   -5.8136 O   0  0  0  0  0  0  0  0  0  0  0  0
    3.0707    0.1419   -3.4330 O   0  0  0  0  0  0  0  0  0  0  0  0
    9.4699    1.8292   -4.1528 C   0  0  0  0  0  0  0  0  0  0  0  0
   10.2099    1.2020   -4.6650 H   0  0  0  0  0  0  0  0  0  0  0  0
    9.4884    2.8125   -4.6306 H   0  0  0  0  0  0  0  0  0  0  0  0
    9.8067    1.9464   -3.1182 H   0  0  0  0  0  0  0  0  0  0  0  0
   -2.1122    1.7100   -0.2231 H   0  0  0  0  0  0  0  0  0  0  0  0
  1  7  1  0  0  0  0
  2  8  1  0  0  0  0
  2  1  2  0  0  0  0
  3  2  1  0  0  0  0
  4  3  2  0  0  0  0
  4  5  1  0  0  0  0
  5  6  2  0  0  0  0
  6  1  1  0  0  0  0
  6 31  1  0  0  0  0
  9  4  1  0  0  0  0
 10  5  1  0  0  0  0
 11  3  1  0  0  0  0
 12 11  2  0  0  0  0
 13 14  2  0  0  0  0
 13 18  1  0  0  0  0
 14 15  1  0  0  0  0
 15 27  1  0  0  0  0
 15 16  2  0  0  0  0
 16 21  1  0  0  0  0
 17 16  1  0  0  0  0
 17 22  1  0  0  0  0
 18 17  2  0  0  0  0
 19 13  1  0  0  0  0
 20 14  1  0  0  0  0
 23 18  1  0  0  0  0
 23 24  2  0  0  0  0
 23 26  1  0  0  0  0
 25 23  2  0  0  0  0
 27 30  1  0  0  0  0
 28 27  1  0  0  0  0
 29 27  1  0  0  0  0
M  RAD  2  12   2  26   2
M  END
