Coordinates from ORCA-job Ph-N2-X-OTs-B3LYPG-6-31G_dp-scan-d09-49-n400
 OpenBabel08281821093D

 31 31  0  0  0  0  0  0  0  0999 V2000
   -0.3159    0.3470   -1.3676 C   0  0  0  0  0  0  0  0  0  0  0  0
    0.6947    1.0101   -2.0582 C   0  0  0  0  0  0  0  0  0  0  0  0
    0.3565    2.2157   -2.6940 C   0  0  0  0  0  0  0  0  0  0  0  0
   -0.9350    2.7591   -2.6570 C   0  0  0  0  0  0  0  0  0  0  0  0
   -1.9202    2.0792   -1.9510 C   0  0  0  0  0  0  0  0  0  0  0  0
   -1.6094    0.8751   -1.3101 C   0  0  0  0  0  0  0  0  0  0  0  0
   -0.0863   -0.5917   -0.8749 H   0  0  0  0  0  0  0  0  0  0  0  0
    1.7036    0.6195   -2.1195 H   0  0  0  0  0  0  0  0  0  0  0  0
   -1.1421    3.6908   -3.1713 H   0  0  0  0  0  0  0  0  0  0  0  0
   -2.9263    2.4821   -1.9037 H   0  0  0  0  0  0  0  0  0  0  0  0
    1.3156    2.9317   -3.4242 N   0  0  0  0  0  0  0  0  0  0  0  0
    2.3969    3.0741   -3.7735 N   0  0  0  0  0  0  0  0  0  0  0  0
    6.1643    1.3571   -5.1842 C   0  0  0  0  0  0  0  0  0  0  0  0
    7.5445    1.4513   -5.3568 C   0  0  0  0  0  0  0  0  0  0  0  0
    8.4312    0.8424   -4.4579 C   0  0  0  0  0  0  0  0  0  0  0  0
    7.8966    0.1306   -3.3742 C   0  0  0  0  0  0  0  0  0  0  0  0
    6.5195    0.0265   -3.1887 C   0  0  0  0  0  0  0  0  0  0  0  0
    5.6587    0.6455   -4.0961 C   0  0  0  0  0  0  0  0  0  0  0  0
    5.4788    1.8157   -5.8884 H   0  0  0  0  0  0  0  0  0  0  0  0
    7.9400    2.0027   -6.2067 H   0  0  0  0  0  0  0  0  0  0  0  0
    8.5682   -0.3512   -2.6680 H   0  0  0  0  0  0  0  0  0  0  0  0
    6.1075   -0.5364   -2.3580 H   0  0  0  0  0  0  0  0  0  0  0  0
    3.8858    0.5516   -3.8426 S   0  0  0  0  0  0  0  0  0  0  0  0
    3.6106   -0.7181   -3.1426 O   0  0  0  0  0  0  0  0  0  0  0  0
    3.2322    0.7770   -5.1471 O   0  0  0  0  0  0  0  0  0  0  0  0
    3.5709    1.7295   -2.8758 O   0  0  0  0  0  0  0  0  0  0  0  0
    9.9247    0.9214   -4.6690 C   0  0  0  0  0  0  0  0  0  0  0  0
   10.2829    0.0806   -5.2770 H   0  0  0  0  0  0  0  0  0  0  0  0
   10.2082    1.8412   -5.1896 H   0  0  0  0  0  0  0  0  0  0  0  0
   10.4658    0.8882   -3.7189 H   0  0  0  0  0  0  0  0  0  0  0  0
   -2.3831    0.3427   -0.7654 H   0  0  0  0  0  0  0  0  0  0  0  0
  1  6  1  0  0  0  0
  1  7  1  0  0  0  0
  2  1  2  0  0  0  0
  3  4  2  0  0  0  0
  3  2  1  0  0  0  0
  4  5  1  0  0  0  0
  5 10  1  0  0  0  0
  5  6  2  0  0  0  0
  6 31  1  0  0  0  0
  8  2  1  0  0  0  0
  9  4  1  0  0  0  0
 11  3  1  0  0  0  0
 12 11  2  0  0  0  0
 13 18  1  0  0  0  0
 14 13  2  0  0  0  0
 14 15  1  0  0  0  0
 15 16  2  0  0  0  0
 16 17  1  0  0  0  0
 16 21  1  0  0  0  0
 17 22  1  0  0  0  0
 18 23  1  0  0  0  0
 18 17  2  0  0  0  0
 19 13  1  0  0  0  0
 20 14  1  0  0  0  0
 23 24  2  0  0  0  0
 23 26  1  0  0  0  0
 25 23  2  0  0  0  0
 27 15  1  0  0  0  0
 27 30  1  0  0  0  0
 28 27  1  0  0  0  0
 29 27  1  0  0  0  0
M  RAD  2  12   2  26   2
M  END
