Coordinates from ORCA-job Ph-N2-X-OTs-B3LYPG-6-31G_dp-scan-d09-49-n400
 OpenBabel08281821093D

 31 31  0  0  0  0  0  0  0  0999 V2000
   -0.2334    0.3251   -1.3541 C   0  0  0  0  0  0  0  0  0  0  0  0
    0.6941    0.9734   -2.1656 C   0  0  0  0  0  0  0  0  0  0  0  0
    0.2964    2.1842   -2.7545 C   0  0  0  0  0  0  0  0  0  0  0  0
   -0.9743    2.7441   -2.5628 C   0  0  0  0  0  0  0  0  0  0  0  0
   -1.8729    2.0798   -1.7366 C   0  0  0  0  0  0  0  0  0  0  0  0
   -1.5014    0.8723   -1.1357 C   0  0  0  0  0  0  0  0  0  0  0  0
    0.0421   -0.6172   -0.8929 H   0  0  0  0  0  0  0  0  0  0  0  0
    1.6789    0.5604   -2.3515 H   0  0  0  0  0  0  0  0  0  0  0  0
   -1.2310    3.6777   -3.0504 H   0  0  0  0  0  0  0  0  0  0  0  0
   -2.8595    2.4968   -1.5657 H   0  0  0  0  0  0  0  0  0  0  0  0
    1.1687    2.8877   -3.5979 N   0  0  0  0  0  0  0  0  0  0  0  0
    2.2123    3.0521   -4.0388 N   0  0  0  0  0  0  0  0  0  0  0  0
    6.2293    1.3707   -5.2605 C   0  0  0  0  0  0  0  0  0  0  0  0
    7.6190    1.4394   -5.3492 C   0  0  0  0  0  0  0  0  0  0  0  0
    8.4382    0.8294   -4.3890 C   0  0  0  0  0  0  0  0  0  0  0  0
    7.8260    0.1428   -3.3304 C   0  0  0  0  0  0  0  0  0  0  0  0
    6.4385    0.0643   -3.2286 C   0  0  0  0  0  0  0  0  0  0  0  0
    5.6458    0.6838   -4.1958 C   0  0  0  0  0  0  0  0  0  0  0  0
    5.5963    1.8300   -6.0118 H   0  0  0  0  0  0  0  0  0  0  0  0
    8.0752    1.9713   -6.1807 H   0  0  0  0  0  0  0  0  0  0  0  0
    8.4445   -0.3393   -2.5775 H   0  0  0  0  0  0  0  0  0  0  0  0
    5.9664   -0.4792   -2.4173 H   0  0  0  0  0  0  0  0  0  0  0  0
    3.8593    0.6234   -4.0518 S   0  0  0  0  0  0  0  0  0  0  0  0
    3.5214   -0.6262   -3.3389 O   0  0  0  0  0  0  0  0  0  0  0  0
    3.2898    0.8192   -5.3989 O   0  0  0  0  0  0  0  0  0  0  0  0
    3.5131    1.8304   -3.1357 O   0  0  0  0  0  0  0  0  0  0  0  0
    9.9430    0.8803   -4.5092 C   0  0  0  0  0  0  0  0  0  0  0  0
   10.3251    0.0108   -5.0596 H   0  0  0  0  0  0  0  0  0  0  0  0
   10.2725    1.7745   -5.0466 H   0  0  0  0  0  0  0  0  0  0  0  0
   10.4244    0.8778   -3.5268 H   0  0  0  0  0  0  0  0  0  0  0  0
   -2.2085    0.3514   -0.4972 H   0  0  0  0  0  0  0  0  0  0  0  0
  1  6  1  0  0  0  0
  1  7  1  0  0  0  0
  2  1  2  0  0  0  0
  3  4  2  0  0  0  0
  3  2  1  0  0  0  0
  4  5  1  0  0  0  0
  5 10  1  0  0  0  0
  5  6  2  0  0  0  0
  6 31  1  0  0  0  0
  8  2  1  0  0  0  0
  9  4  1  0  0  0  0
 11  3  1  0  0  0  0
 12 11  2  0  0  0  0
 13 18  1  0  0  0  0
 14 13  2  0  0  0  0
 14 15  1  0  0  0  0
 15 16  2  0  0  0  0
 16 17  1  0  0  0  0
 16 21  1  0  0  0  0
 17 22  1  0  0  0  0
 18 23  1  0  0  0  0
 18 17  2  0  0  0  0
 19 13  1  0  0  0  0
 20 14  1  0  0  0  0
 23 24  2  0  0  0  0
 23 26  1  0  0  0  0
 25 23  2  0  0  0  0
 27 15  1  0  0  0  0
 27 30  1  0  0  0  0
 28 27  1  0  0  0  0
 29 27  1  0  0  0  0
M  RAD  2  12   2  26   2
M  END
