Coordinates from ORCA-job Ph-N2-X-OTs-B3LYPG-6-31G_dp-scan-d09-49-n400
 OpenBabel08281821093D

 31 31  0  0  0  0  0  0  0  0999 V2000
   -0.0502    0.2643   -1.3840 C   0  0  0  0  0  0  0  0  0  0  0  0
    0.7432    0.9430   -2.3068 C   0  0  0  0  0  0  0  0  0  0  0  0
    0.2345    2.1496   -2.8126 C   0  0  0  0  0  0  0  0  0  0  0  0
   -1.0123    2.6759   -2.4444 C   0  0  0  0  0  0  0  0  0  0  0  0
   -1.7700    1.9801   -1.5110 C   0  0  0  0  0  0  0  0  0  0  0  0
   -1.2882    0.7759   -0.9846 C   0  0  0  0  0  0  0  0  0  0  0  0
    0.3084   -0.6758   -0.9789 H   0  0  0  0  0  0  0  0  0  0  0  0
    1.7020    0.5433   -2.6365 H   0  0  0  0  0  0  0  0  0  0  0  0
   -1.3566    3.6073   -2.8792 H   0  0  0  0  0  0  0  0  0  0  0  0
   -2.7337    2.3683   -1.2004 H   0  0  0  0  0  0  0  0  0  0  0  0
    0.9694    2.8771   -3.7578 N   0  0  0  0  0  0  0  0  0  0  0  0
    1.9248    3.1466   -4.3185 N   0  0  0  0  0  0  0  0  0  0  0  0
    6.3025    1.3779   -5.3611 C   0  0  0  0  0  0  0  0  0  0  0  0
    7.6964    1.3561   -5.3591 C   0  0  0  0  0  0  0  0  0  0  0  0
    8.4112    0.7730   -4.3034 C   0  0  0  0  0  0  0  0  0  0  0  0
    7.6896    0.2079   -3.2419 C   0  0  0  0  0  0  0  0  0  0  0  0
    6.2962    0.2212   -3.2299 C   0  0  0  0  0  0  0  0  0  0  0  0
    5.6089    0.8106   -4.2918 C   0  0  0  0  0  0  0  0  0  0  0  0
    5.7489    1.8153   -6.1848 H   0  0  0  0  0  0  0  0  0  0  0  0
    8.2383    1.7951   -6.1934 H   0  0  0  0  0  0  0  0  0  0  0  0
    8.2268   -0.2507   -2.4152 H   0  0  0  0  0  0  0  0  0  0  0  0
    5.7389   -0.2294   -2.4159 H   0  0  0  0  0  0  0  0  0  0  0  0
    3.8167    0.8705   -4.2717 S   0  0  0  0  0  0  0  0  0  0  0  0
    3.3530   -0.3135   -3.5051 O   0  0  0  0  0  0  0  0  0  0  0  0
    3.3505    0.9849   -5.6665 O   0  0  0  0  0  0  0  0  0  0  0  0
    3.4988    2.1512   -3.4695 O   0  0  0  0  0  0  0  0  0  0  0  0
    9.9206    0.7235   -4.3248 C   0  0  0  0  0  0  0  0  0  0  0  0
   10.2789   -0.2000   -4.7977 H   0  0  0  0  0  0  0  0  0  0  0  0
   10.3415    1.5609   -4.8892 H   0  0  0  0  0  0  0  0  0  0  0  0
   10.3377    0.7514   -3.3138 H   0  0  0  0  0  0  0  0  0  0  0  0
   -1.8876    0.2295   -0.2625 H   0  0  0  0  0  0  0  0  0  0  0  0
  1  6  1  0  0  0  0
  1  7  1  0  0  0  0
  2  1  2  0  0  0  0
  3  4  2  0  0  0  0
  3  2  1  0  0  0  0
  4  5  1  0  0  0  0
  5 10  1  0  0  0  0
  5  6  2  0  0  0  0
  6 31  1  0  0  0  0
  8  2  1  0  0  0  0
  9  4  1  0  0  0  0
 11  3  1  0  0  0  0
 12 11  2  0  0  0  0
 13 14  2  0  0  0  0
 13 18  1  0  0  0  0
 14 15  1  0  0  0  0
 15 16  2  0  0  0  0
 16 17  1  0  0  0  0
 16 21  1  0  0  0  0
 17 22  1  0  0  0  0
 18 23  1  0  0  0  0
 18 17  2  0  0  0  0
 19 13  1  0  0  0  0
 20 14  1  0  0  0  0
 23 24  2  0  0  0  0
 23 26  1  0  0  0  0
 25 23  2  0  0  0  0
 27 15  1  0  0  0  0
 27 30  1  0  0  0  0
 28 27  1  0  0  0  0
 29 27  1  0  0  0  0
M  RAD  2  12   2  26   2
M  END
