Coordinates from ORCA-job Ph-N2-X-OTs-B3LYPG-6-31G_dp-scan-d09-49-n400
 OpenBabel08281821093D

 31 31  0  0  0  0  0  0  0  0999 V2000
   -0.5680    0.6992   -1.1475 C   0  0  0  0  0  0  0  0  0  0  0  0
    0.6041    0.9751   -1.8457 C   0  0  0  0  0  0  0  0  0  0  0  0
    0.6035    2.0817   -2.7113 C   0  0  0  0  0  0  0  0  0  0  0  0
   -0.5211    2.9016   -2.8794 C   0  0  0  0  0  0  0  0  0  0  0  0
   -1.6796    2.6032   -2.1710 C   0  0  0  0  0  0  0  0  0  0  0  0
   -1.7011    1.5035   -1.3076 C   0  0  0  0  0  0  0  0  0  0  0  0
   -0.5958   -0.1529   -0.4759 H   0  0  0  0  0  0  0  0  0  0  0  0
    1.4987    0.3729   -1.7513 H   0  0  0  0  0  0  0  0  0  0  0  0
   -0.4702    3.7453   -3.5589 H   0  0  0  0  0  0  0  0  0  0  0  0
   -2.5620    3.2228   -2.2917 H   0  0  0  0  0  0  0  0  0  0  0  0
    1.7359    2.4297   -3.4648 N   0  0  0  0  0  0  0  0  0  0  0  0
    2.8135    2.1306   -3.7611 N   0  0  0  0  0  0  0  0  0  0  0  0
    5.9505    1.0158   -5.1805 C   0  0  0  0  0  0  0  0  0  0  0  0
    7.2484    1.5028   -5.3345 C   0  0  0  0  0  0  0  0  0  0  0  0
    8.2661    1.1506   -4.4381 C   0  0  0  0  0  0  0  0  0  0  0  0
    7.9499    0.2920   -3.3741 C   0  0  0  0  0  0  0  0  0  0  0  0
    6.6588   -0.2026   -3.2067 C   0  0  0  0  0  0  0  0  0  0  0  0
    5.6618    0.1676   -4.1117 C   0  0  0  0  0  0  0  0  0  0  0  0
    5.1672    1.2750   -5.8841 H   0  0  0  0  0  0  0  0  0  0  0  0
    7.4763    2.1621   -6.1685 H   0  0  0  0  0  0  0  0  0  0  0  0
    8.7276    0.0034   -2.6712 H   0  0  0  0  0  0  0  0  0  0  0  0
    6.4203   -0.8801   -2.3938 H   0  0  0  0  0  0  0  0  0  0  0  0
    3.9917   -0.4462   -3.8879 S   0  0  0  0  0  0  0  0  0  0  0  0
    4.0862   -1.7584   -3.2373 O   0  0  0  0  0  0  0  0  0  0  0  0
    3.3000   -0.3221   -5.1792 O   0  0  0  0  0  0  0  0  0  0  0  0
    3.3526    0.5523   -2.8451 O   0  0  0  0  0  0  0  0  0  0  0  0
    9.6773    1.6537   -4.6296 C   0  0  0  0  0  0  0  0  0  0  0  0
   10.2894    0.9166   -5.1649 H   0  0  0  0  0  0  0  0  0  0  0  0
    9.6968    2.5792   -5.2123 H   0  0  0  0  0  0  0  0  0  0  0  0
   10.1677    1.8450   -3.6703 H   0  0  0  0  0  0  0  0  0  0  0  0
   -2.6071    1.2714   -0.7559 H   0  0  0  0  0  0  0  0  0  0  0  0
  1  7  1  0  0  0  0
  2  8  1  0  0  0  0
  2  1  2  0  0  0  0
  3  2  1  0  0  0  0
  4  3  2  0  0  0  0
  4  5  1  0  0  0  0
  5  6  2  0  0  0  0
  6  1  1  0  0  0  0
  6 31  1  0  0  0  0
  9  4  1  0  0  0  0
 10  5  1  0  0  0  0
 11  3  1  0  0  0  0
 12 11  2  0  0  0  0
 13 18  1  0  0  0  0
 14 13  2  0  0  0  0
 14 15  1  0  0  0  0
 15 16  2  0  0  0  0
 16 17  1  0  0  0  0
 16 21  1  0  0  0  0
 17 22  1  0  0  0  0
 18 23  1  0  0  0  0
 18 17  2  0  0  0  0
 19 13  1  0  0  0  0
 20 14  1  0  0  0  0
 23 24  2  0  0  0  0
 23 26  1  0  0  0  0
 25 23  2  0  0  0  0
 27 15  1  0  0  0  0
 27 30  1  0  0  0  0
 28 27  1  0  0  0  0
 29 27  1  0  0  0  0
M  RAD  2  12   2  26   2
M  END
