Coordinates from ORCA-job Ph-N2-X-OTs-B3LYPG-6-31G_dp-scan-d09-49-n400
 OpenBabel08281821093D

 31 31  0  0  0  0  0  0  0  0999 V2000
   -0.2720    0.3330   -1.3663 C   0  0  0  0  0  0  0  0  0  0  0  0
    0.7074    1.0089   -2.0890 C   0  0  0  0  0  0  0  0  0  0  0  0
    0.3334    2.2119   -2.7092 C   0  0  0  0  0  0  0  0  0  0  0  0
   -0.9624    2.7404   -2.6277 C   0  0  0  0  0  0  0  0  0  0  0  0
   -1.9148    2.0482   -1.8895 C   0  0  0  0  0  0  0  0  0  0  0  0
   -1.5685    0.8464   -1.2626 C   0  0  0  0  0  0  0  0  0  0  0  0
   -0.0150   -0.6043   -0.8847 H   0  0  0  0  0  0  0  0  0  0  0  0
    1.7168    0.6257   -2.1849 H   0  0  0  0  0  0  0  0  0  0  0  0
   -1.1977    3.6705   -3.1325 H   0  0  0  0  0  0  0  0  0  0  0  0
   -2.9231    2.4396   -1.8064 H   0  0  0  0  0  0  0  0  0  0  0  0
    1.2586    2.9399   -3.4704 N   0  0  0  0  0  0  0  0  0  0  0  0
    2.3245    3.1098   -3.8508 N   0  0  0  0  0  0  0  0  0  0  0  0
    6.1902    1.3682   -5.2119 C   0  0  0  0  0  0  0  0  0  0  0  0
    7.5748    1.4367   -5.3608 C   0  0  0  0  0  0  0  0  0  0  0  0
    8.4346    0.8242   -4.4386 C   0  0  0  0  0  0  0  0  0  0  0  0
    7.8686    0.1353   -3.3561 C   0  0  0  0  0  0  0  0  0  0  0  0
    6.4869    0.0569   -3.1942 C   0  0  0  0  0  0  0  0  0  0  0  0
    5.6531    0.6790   -4.1245 C   0  0  0  0  0  0  0  0  0  0  0  0
    5.5253    1.8297   -5.9338 H   0  0  0  0  0  0  0  0  0  0  0  0
    7.9946    1.9706   -6.2100 H   0  0  0  0  0  0  0  0  0  0  0  0
    8.5191   -0.3488   -2.6318 H   0  0  0  0  0  0  0  0  0  0  0  0
    6.0505   -0.4884   -2.3642 H   0  0  0  0  0  0  0  0  0  0  0  0
    3.8747    0.6193   -3.9016 S   0  0  0  0  0  0  0  0  0  0  0  0
    3.5651   -0.6373   -3.1901 O   0  0  0  0  0  0  0  0  0  0  0  0
    3.2472    0.8342   -5.2206 O   0  0  0  0  0  0  0  0  0  0  0  0
    3.5660    1.8141   -2.9574 O   0  0  0  0  0  0  0  0  0  0  0  0
    9.9329    0.8752   -4.6232 C   0  0  0  0  0  0  0  0  0  0  0  0
   10.2897    0.0112   -5.1988 H   0  0  0  0  0  0  0  0  0  0  0  0
   10.2400    1.7748   -5.1652 H   0  0  0  0  0  0  0  0  0  0  0  0
   10.4557    0.8622   -3.6624 H   0  0  0  0  0  0  0  0  0  0  0  0
   -2.3170    0.3039   -0.6930 H   0  0  0  0  0  0  0  0  0  0  0  0
  1  6  1  0  0  0  0
  1  7  1  0  0  0  0
  2  1  2  0  0  0  0
  3  4  2  0  0  0  0
  3  2  1  0  0  0  0
  4  5  1  0  0  0  0
  5 10  1  0  0  0  0
  5  6  2  0  0  0  0
  6 31  1  0  0  0  0
  8  2  1  0  0  0  0
  9  4  1  0  0  0  0
 11  3  1  0  0  0  0
 12 11  2  0  0  0  0
 13 18  1  0  0  0  0
 14 13  2  0  0  0  0
 14 15  1  0  0  0  0
 15 16  2  0  0  0  0
 16 17  1  0  0  0  0
 16 21  1  0  0  0  0
 17 22  1  0  0  0  0
 18 23  1  0  0  0  0
 18 17  2  0  0  0  0
 19 13  1  0  0  0  0
 20 14  1  0  0  0  0
 23 24  2  0  0  0  0
 23 26  1  0  0  0  0
 25 23  2  0  0  0  0
 27 15  1  0  0  0  0
 27 30  1  0  0  0  0
 28 27  1  0  0  0  0
 29 27  1  0  0  0  0
M  RAD  2  12   2  26   2
M  END
