Coordinates from ORCA-job Ph-N2-X-OTs-B3LYPG-6-31G_dp-scan-d09-49-n400
 OpenBabel08281821093D

 31 31  0  0  0  0  0  0  0  0999 V2000
   -0.3599    0.3590   -1.4154 C   0  0  0  0  0  0  0  0  0  0  0  0
    0.7311    1.0742   -1.9000 C   0  0  0  0  0  0  0  0  0  0  0  0
    0.4644    2.2630   -2.5985 C   0  0  0  0  0  0  0  0  0  0  0  0
   -0.8342    2.7444   -2.8139 C   0  0  0  0  0  0  0  0  0  0  0  0
   -1.9035    2.0090   -2.3170 C   0  0  0  0  0  0  0  0  0  0  0  0
   -1.6645    0.8192   -1.6208 C   0  0  0  0  0  0  0  0  0  0  0  0
   -0.1852   -0.5682   -0.8803 H   0  0  0  0  0  0  0  0  0  0  0  0
    1.7523    0.7404   -1.7603 H   0  0  0  0  0  0  0  0  0  0  0  0
   -0.9822    3.6686   -3.3609 H   0  0  0  0  0  0  0  0  0  0  0  0
   -2.9184    2.3587   -2.4734 H   0  0  0  0  0  0  0  0  0  0  0  0
    1.5130    3.0279   -3.1242 N   0  0  0  0  0  0  0  0  0  0  0  0
    2.6286    3.1841   -3.3247 N   0  0  0  0  0  0  0  0  0  0  0  0
    6.0474    1.3489   -5.0630 C   0  0  0  0  0  0  0  0  0  0  0  0
    7.4045    1.4426   -5.3669 C   0  0  0  0  0  0  0  0  0  0  0  0
    8.3731    0.8372   -4.5538 C   0  0  0  0  0  0  0  0  0  0  0  0
    7.9449    0.1302   -3.4213 C   0  0  0  0  0  0  0  0  0  0  0  0
    6.5915    0.0265   -3.1050 C   0  0  0  0  0  0  0  0  0  0  0  0
    5.6480    0.6420   -3.9285 C   0  0  0  0  0  0  0  0  0  0  0  0
    5.2969    1.8035   -5.7002 H   0  0  0  0  0  0  0  0  0  0  0  0
    7.7172    1.9902   -6.2528 H   0  0  0  0  0  0  0  0  0  0  0  0
    8.6814   -0.3482   -2.7808 H   0  0  0  0  0  0  0  0  0  0  0  0
    6.2611   -0.5339   -2.2369 H   0  0  0  0  0  0  0  0  0  0  0  0
    3.9074    0.5448   -3.5063 S   0  0  0  0  0  0  0  0  0  0  0  0
    3.6939   -0.7435   -2.8220 O   0  0  0  0  0  0  0  0  0  0  0  0
    3.1342    0.8122   -4.7367 O   0  0  0  0  0  0  0  0  0  0  0  0
    3.6840    1.6937   -2.4820 O   0  0  0  0  0  0  0  0  0  0  0  0
    9.8391    0.9172   -4.9086 C   0  0  0  0  0  0  0  0  0  0  0  0
   10.1140    0.1378   -5.6307 H   0  0  0  0  0  0  0  0  0  0  0  0
   10.0896    1.8810   -5.3629 H   0  0  0  0  0  0  0  0  0  0  0  0
   10.4724    0.7834   -4.0269 H   0  0  0  0  0  0  0  0  0  0  0  0
   -2.5024    0.2452   -1.2374 H   0  0  0  0  0  0  0  0  0  0  0  0
  1  7  1  0  0  0  0
  2  8  1  0  0  0  0
  2  1  2  0  0  0  0
  3  2  1  0  0  0  0
  4  3  2  0  0  0  0
  4  5  1  0  0  0  0
  5  6  2  0  0  0  0
  6  1  1  0  0  0  0
  6 31  1  0  0  0  0
  9  4  1  0  0  0  0
 10  5  1  0  0  0  0
 11  3  1  0  0  0  0
 12 11  2  0  0  0  0
 13 18  1  0  0  0  0
 14 13  2  0  0  0  0
 14 15  1  0  0  0  0
 15 16  2  0  0  0  0
 16 17  1  0  0  0  0
 16 21  1  0  0  0  0
 17 22  1  0  0  0  0
 18 23  1  0  0  0  0
 18 17  2  0  0  0  0
 19 13  1  0  0  0  0
 20 14  1  0  0  0  0
 23 24  2  0  0  0  0
 23 26  1  0  0  0  0
 25 23  2  0  0  0  0
 27 15  1  0  0  0  0
 27 30  1  0  0  0  0
 28 27  1  0  0  0  0
 29 27  1  0  0  0  0
M  RAD  2  12   2  26   2
M  END
