Coordinates from ORCA-job Ph-N2-X-OTs-B3LYPG-6-31G_dp-scan-d09-49-n400
 OpenBabel08281821093D

 31 31  0  0  0  0  0  0  0  0999 V2000
   -0.5915    0.6345   -1.2130 C   0  0  0  0  0  0  0  0  0  0  0  0
    0.6060    0.9976   -1.8224 C   0  0  0  0  0  0  0  0  0  0  0  0
    0.5949    2.1249   -2.6605 C   0  0  0  0  0  0  0  0  0  0  0  0
   -0.5624    2.8824   -2.8878 C   0  0  0  0  0  0  0  0  0  0  0  0
   -1.7454    2.4964   -2.2680 C   0  0  0  0  0  0  0  0  0  0  0  0
   -1.7579    1.3744   -1.4333 C   0  0  0  0  0  0  0  0  0  0  0  0
   -0.6127   -0.2356   -0.5649 H   0  0  0  0  0  0  0  0  0  0  0  0
    1.5285    0.4486   -1.6814 H   0  0  0  0  0  0  0  0  0  0  0  0
   -0.5172    3.7457   -3.5425 H   0  0  0  0  0  0  0  0  0  0  0  0
   -2.6538    3.0654   -2.4352 H   0  0  0  0  0  0  0  0  0  0  0  0
    1.7552    2.5538   -3.3232 N   0  0  0  0  0  0  0  0  0  0  0  0
    2.8620    2.3319   -3.5634 N   0  0  0  0  0  0  0  0  0  0  0  0
    5.9465    1.0786   -5.1231 C   0  0  0  0  0  0  0  0  0  0  0  0
    7.2583    1.5004   -5.3389 C   0  0  0  0  0  0  0  0  0  0  0  0
    8.2980    1.0983   -4.4903 C   0  0  0  0  0  0  0  0  0  0  0  0
    7.9897    0.2565   -3.4107 C   0  0  0  0  0  0  0  0  0  0  0  0
    6.6850   -0.1738   -3.1822 C   0  0  0  0  0  0  0  0  0  0  0  0
    5.6662    0.2455   -4.0403 C   0  0  0  0  0  0  0  0  0  0  0  0
    5.1448    1.3763   -5.7896 H   0  0  0  0  0  0  0  0  0  0  0  0
    7.4794    2.1474   -6.1844 H   0  0  0  0  0  0  0  0  0  0  0  0
    8.7839   -0.0701   -2.7439 H   0  0  0  0  0  0  0  0  0  0  0  0
    6.4518   -0.8387   -2.3574 H   0  0  0  0  0  0  0  0  0  0  0  0
    3.9796   -0.2832   -3.7364 S   0  0  0  0  0  0  0  0  0  0  0  0
    4.0389   -1.6097   -3.1097 O   0  0  0  0  0  0  0  0  0  0  0  0
    3.2309   -0.1091   -4.9917 O   0  0  0  0  0  0  0  0  0  0  0  0
    3.4454    0.7321   -2.6587 O   0  0  0  0  0  0  0  0  0  0  0  0
    9.7219    1.5305   -4.7489 C   0  0  0  0  0  0  0  0  0  0  0  0
   10.2719    0.7630   -5.3082 H   0  0  0  0  0  0  0  0  0  0  0  0
    9.7598    2.4525   -5.3365 H   0  0  0  0  0  0  0  0  0  0  0  0
   10.2650    1.7000   -3.8141 H   0  0  0  0  0  0  0  0  0  0  0  0
   -2.6832    1.0744   -0.9512 H   0  0  0  0  0  0  0  0  0  0  0  0
  1  7  1  0  0  0  0
  2  8  1  0  0  0  0
  2  1  2  0  0  0  0
  3  2  1  0  0  0  0
  4  3  2  0  0  0  0
  4  5  1  0  0  0  0
  5  6  2  0  0  0  0
  6  1  1  0  0  0  0
  6 31  1  0  0  0  0
  9  4  1  0  0  0  0
 10  5  1  0  0  0  0
 11  3  1  0  0  0  0
 12 11  2  0  0  0  0
 13 18  1  0  0  0  0
 14 13  2  0  0  0  0
 14 15  1  0  0  0  0
 15 16  2  0  0  0  0
 16 17  1  0  0  0  0
 16 21  1  0  0  0  0
 17 22  1  0  0  0  0
 18 23  1  0  0  0  0
 18 17  2  0  0  0  0
 19 13  1  0  0  0  0
 20 14  1  0  0  0  0
 23 24  2  0  0  0  0
 23 26  1  0  0  0  0
 25 23  2  0  0  0  0
 27 15  1  0  0  0  0
 27 30  1  0  0  0  0
 28 27  1  0  0  0  0
 29 27  1  0  0  0  0
M  RAD  2  12   2  26   2
M  END
