Coordinates from ORCA-job Ph-N2-X-OTs-B3LYPG-6-31G_dp-scan-d09-49-n400
 OpenBabel08281821093D

 31 31  0  0  0  0  0  0  0  0999 V2000
   -0.0947    1.1874   -0.7478 C   0  0  0  0  0  0  0  0  0  0  0  0
    0.9203    1.2605   -1.6980 C   0  0  0  0  0  0  0  0  0  0  0  0
    0.6734    1.9899   -2.8709 C   0  0  0  0  0  0  0  0  0  0  0  0
   -0.5418    2.6520   -3.0914 C   0  0  0  0  0  0  0  0  0  0  0  0
   -1.5486    2.5474   -2.1375 C   0  0  0  0  0  0  0  0  0  0  0  0
   -1.3237    1.8170   -0.9670 C   0  0  0  0  0  0  0  0  0  0  0  0
    0.0757    0.6305    0.1678 H   0  0  0  0  0  0  0  0  0  0  0  0
    1.8774    0.7840   -1.5454 H   0  0  0  0  0  0  0  0  0  0  0  0
   -0.6801    3.2199   -4.0049 H   0  0  0  0  0  0  0  0  0  0  0  0
   -2.5012    3.0400   -2.3016 H   0  0  0  0  0  0  0  0  0  0  0  0
    1.6468    2.1455   -3.8748 N   0  0  0  0  0  0  0  0  0  0  0  0
    2.6124    1.6679   -4.3156 N   0  0  0  0  0  0  0  0  0  0  0  0
    5.9066    1.0007   -5.2812 C   0  0  0  0  0  0  0  0  0  0  0  0
    7.1614    1.6041   -5.2011 C   0  0  0  0  0  0  0  0  0  0  0  0
    8.0878    1.2237   -4.2208 C   0  0  0  0  0  0  0  0  0  0  0  0
    7.7243    0.2156   -3.3152 C   0  0  0  0  0  0  0  0  0  0  0  0
    6.4746   -0.3959   -3.3806 C   0  0  0  0  0  0  0  0  0  0  0  0
    5.5681    0.0061   -4.3636 C   0  0  0  0  0  0  0  0  0  0  0  0
    5.1966    1.2825   -6.0508 H   0  0  0  0  0  0  0  0  0  0  0  0
    7.4277    2.3790   -5.9155 H   0  0  0  0  0  0  0  0  0  0  0  0
    8.4331   -0.0974   -2.5523 H   0  0  0  0  0  0  0  0  0  0  0  0
    6.2018   -1.1883   -2.6918 H   0  0  0  0  0  0  0  0  0  0  0  0
    3.9481   -0.7597   -4.4389 S   0  0  0  0  0  0  0  0  0  0  0  0
    4.0667   -2.1017   -3.8599 O   0  0  0  0  0  0  0  0  0  0  0  0
    3.4423   -0.5944   -5.8054 O   0  0  0  0  0  0  0  0  0  0  0  0
    3.0717    0.1166   -3.4355 O   0  0  0  0  0  0  0  0  0  0  0  0
    9.4574    1.8578   -4.1587 C   0  0  0  0  0  0  0  0  0  0  0  0
   10.2056    1.2282   -4.6559 H   0  0  0  0  0  0  0  0  0  0  0  0
    9.4695    2.8325   -4.6539 H   0  0  0  0  0  0  0  0  0  0  0  0
    9.7879    1.9966   -3.1247 H   0  0  0  0  0  0  0  0  0  0  0  0
   -2.1075    1.7426   -0.2190 H   0  0  0  0  0  0  0  0  0  0  0  0
  1  7  1  0  0  0  0
  2  8  1  0  0  0  0
  2  1  2  0  0  0  0
  3  2  1  0  0  0  0
  4  3  2  0  0  0  0
  4  5  1  0  0  0  0
  5  6  2  0  0  0  0
  6  1  1  0  0  0  0
  6 31  1  0  0  0  0
  9  4  1  0  0  0  0
 10  5  1  0  0  0  0
 11  3  1  0  0  0  0
 12 11  2  0  0  0  0
 13 14  2  0  0  0  0
 13 18  1  0  0  0  0
 14 15  1  0  0  0  0
 15 27  1  0  0  0  0
 15 16  2  0  0  0  0
 16 21  1  0  0  0  0
 17 16  1  0  0  0  0
 17 22  1  0  0  0  0
 18 17  2  0  0  0  0
 19 13  1  0  0  0  0
 20 14  1  0  0  0  0
 23 18  1  0  0  0  0
 23 24  2  0  0  0  0
 23 26  1  0  0  0  0
 25 23  2  0  0  0  0
 27 30  1  0  0  0  0
 28 27  1  0  0  0  0
 29 27  1  0  0  0  0
M  RAD  2  12   2  26   2
M  END
