Coordinates from ORCA-job Ph-N2-X-OTs-B3LYPG-6-31G_dp-scan-d09-49-n400
 OpenBabel08281821093D

 31 31  0  0  0  0  0  0  0  0999 V2000
   -0.3711    0.3660   -1.4101 C   0  0  0  0  0  0  0  0  0  0  0  0
    0.7254    1.0723   -1.8952 C   0  0  0  0  0  0  0  0  0  0  0  0
    0.4680    2.2601   -2.5989 C   0  0  0  0  0  0  0  0  0  0  0  0
   -0.8268    2.7491   -2.8191 C   0  0  0  0  0  0  0  0  0  0  0  0
   -1.9020    2.0225   -2.3219 C   0  0  0  0  0  0  0  0  0  0  0  0
   -1.6722    0.8339   -1.6205 C   0  0  0  0  0  0  0  0  0  0  0  0
   -0.2038   -0.5602   -0.8710 H   0  0  0  0  0  0  0  0  0  0  0  0
    1.7445    0.7338   -1.7525 H   0  0  0  0  0  0  0  0  0  0  0  0
   -0.9676    3.6723   -3.3699 H   0  0  0  0  0  0  0  0  0  0  0  0
   -2.9143    2.3780   -2.4819 H   0  0  0  0  0  0  0  0  0  0  0  0
    1.5232    3.0161   -3.1244 N   0  0  0  0  0  0  0  0  0  0  0  0
    2.6408    3.1624   -3.3223 N   0  0  0  0  0  0  0  0  0  0  0  0
    6.0434    1.3429   -5.0608 C   0  0  0  0  0  0  0  0  0  0  0  0
    7.3997    1.4460   -5.3655 C   0  0  0  0  0  0  0  0  0  0  0  0
    8.3727    0.8445   -4.5548 C   0  0  0  0  0  0  0  0  0  0  0  0
    7.9499    0.1319   -3.4239 C   0  0  0  0  0  0  0  0  0  0  0  0
    6.5974    0.0187   -3.1068 C   0  0  0  0  0  0  0  0  0  0  0  0
    5.6494    0.6305   -3.9278 C   0  0  0  0  0  0  0  0  0  0  0  0
    5.2896    1.7945   -5.6961 H   0  0  0  0  0  0  0  0  0  0  0  0
    7.7083    1.9979   -6.2503 H   0  0  0  0  0  0  0  0  0  0  0  0
    8.6899   -0.3437   -2.7852 H   0  0  0  0  0  0  0  0  0  0  0  0
    6.2713   -0.5461   -2.2400 H   0  0  0  0  0  0  0  0  0  0  0  0
    3.9097    0.5208   -3.5047 S   0  0  0  0  0  0  0  0  0  0  0  0
    3.7048   -0.7715   -2.8258 O   0  0  0  0  0  0  0  0  0  0  0  0
    3.1339    0.7898   -4.7330 O   0  0  0  0  0  0  0  0  0  0  0  0
    3.6805    1.6643   -2.4750 O   0  0  0  0  0  0  0  0  0  0  0  0
    9.8379    0.9346   -4.9106 C   0  0  0  0  0  0  0  0  0  0  0  0
   10.1169    0.1594   -5.6356 H   0  0  0  0  0  0  0  0  0  0  0  0
   10.0822    1.9015   -5.3618 H   0  0  0  0  0  0  0  0  0  0  0  0
   10.4728    0.8016   -4.0298 H   0  0  0  0  0  0  0  0  0  0  0  0
   -2.5147    0.2669   -1.2368 H   0  0  0  0  0  0  0  0  0  0  0  0
  1  7  1  0  0  0  0
  2  8  1  0  0  0  0
  2  1  2  0  0  0  0
  3  2  1  0  0  0  0
  4  3  2  0  0  0  0
  4  5  1  0  0  0  0
  5  6  2  0  0  0  0
  6  1  1  0  0  0  0
  6 31  1  0  0  0  0
  9  4  1  0  0  0  0
 10  5  1  0  0  0  0
 11  3  1  0  0  0  0
 12 11  2  0  0  0  0
 13 18  1  0  0  0  0
 14 13  2  0  0  0  0
 14 15  1  0  0  0  0
 15 16  2  0  0  0  0
 16 17  1  0  0  0  0
 16 21  1  0  0  0  0
 17 22  1  0  0  0  0
 18 23  1  0  0  0  0
 18 17  2  0  0  0  0
 19 13  1  0  0  0  0
 20 14  1  0  0  0  0
 23 24  2  0  0  0  0
 23 26  1  0  0  0  0
 25 23  2  0  0  0  0
 27 15  1  0  0  0  0
 27 30  1  0  0  0  0
 28 27  1  0  0  0  0
 29 27  1  0  0  0  0
M  RAD  2  12   2  26   2
M  END
