Coordinates from ORCA-job Ph-N2-X-OTs-B3LYPG-6-31G_dp-scan-d09-49-n400
 OpenBabel08281821093D

 31 31  0  0  0  0  0  0  0  0999 V2000
   -0.5936    0.6503   -1.2012 C   0  0  0  0  0  0  0  0  0  0  0  0
    0.6024    0.9896   -1.8271 C   0  0  0  0  0  0  0  0  0  0  0  0
    0.6013    2.1138   -2.6695 C   0  0  0  0  0  0  0  0  0  0  0  0
   -0.5452    2.8908   -2.8851 C   0  0  0  0  0  0  0  0  0  0  0  0
   -1.7272    2.5286   -2.2490 C   0  0  0  0  0  0  0  0  0  0  0  0
   -1.7493    1.4102   -1.4097 C   0  0  0  0  0  0  0  0  0  0  0  0
   -0.6223   -0.2168   -0.5493 H   0  0  0  0  0  0  0  0  0  0  0  0
    1.5164    0.4245   -1.6953 H   0  0  0  0  0  0  0  0  0  0  0  0
   -0.4928    3.7507   -3.5439 H   0  0  0  0  0  0  0  0  0  0  0  0
   -2.6272    3.1133   -2.4071 H   0  0  0  0  0  0  0  0  0  0  0  0
    1.7601    2.5201   -3.3487 N   0  0  0  0  0  0  0  0  0  0  0  0
    2.8606    2.2766   -3.5995 N   0  0  0  0  0  0  0  0  0  0  0  0
    5.9436    1.0606   -5.1344 C   0  0  0  0  0  0  0  0  0  0  0  0
    7.2511    1.5018   -5.3376 C   0  0  0  0  0  0  0  0  0  0  0  0
    8.2887    1.1140   -4.4798 C   0  0  0  0  0  0  0  0  0  0  0  0
    7.9828    0.2665   -3.4039 C   0  0  0  0  0  0  0  0  0  0  0  0
    6.6825   -0.1829   -3.1879 C   0  0  0  0  0  0  0  0  0  0  0  0
    5.6656    0.2224   -4.0550 C   0  0  0  0  0  0  0  0  0  0  0  0
    5.1439    1.3472   -5.8081 H   0  0  0  0  0  0  0  0  0  0  0  0
    7.4705    2.1529   -6.1804 H   0  0  0  0  0  0  0  0  0  0  0  0
    8.7756   -0.0493   -2.7303 H   0  0  0  0  0  0  0  0  0  0  0  0
    6.4515   -0.8520   -2.3659 H   0  0  0  0  0  0  0  0  0  0  0  0
    3.9843   -0.3316   -3.7671 S   0  0  0  0  0  0  0  0  0  0  0  0
    4.0572   -1.6559   -3.1379 O   0  0  0  0  0  0  0  0  0  0  0  0
    3.2457   -0.1689   -5.0295 O   0  0  0  0  0  0  0  0  0  0  0  0
    3.4249    0.6760   -2.6941 O   0  0  0  0  0  0  0  0  0  0  0  0
    9.7085    1.5673   -4.7247 C   0  0  0  0  0  0  0  0  0  0  0  0
   10.2748    0.8085   -5.2797 H   0  0  0  0  0  0  0  0  0  0  0  0
    9.7384    2.4904   -5.3109 H   0  0  0  0  0  0  0  0  0  0  0  0
   10.2403    1.7436   -3.7847 H   0  0  0  0  0  0  0  0  0  0  0  0
   -2.6737    1.1288   -0.9147 H   0  0  0  0  0  0  0  0  0  0  0  0
  1  7  1  0  0  0  0
  2  8  1  0  0  0  0
  2  1  2  0  0  0  0
  3  2  1  0  0  0  0
  4  3  2  0  0  0  0
  4  5  1  0  0  0  0
  5  6  2  0  0  0  0
  6  1  1  0  0  0  0
  6 31  1  0  0  0  0
  9  4  1  0  0  0  0
 10  5  1  0  0  0  0
 11  3  1  0  0  0  0
 12 11  2  0  0  0  0
 13 18  1  0  0  0  0
 14 13  2  0  0  0  0
 14 15  1  0  0  0  0
 15 16  2  0  0  0  0
 16 17  1  0  0  0  0
 16 21  1  0  0  0  0
 17 22  1  0  0  0  0
 18 23  1  0  0  0  0
 18 17  2  0  0  0  0
 19 13  1  0  0  0  0
 20 14  1  0  0  0  0
 23 24  2  0  0  0  0
 23 26  1  0  0  0  0
 25 23  2  0  0  0  0
 27 15  1  0  0  0  0
 27 30  1  0  0  0  0
 28 27  1  0  0  0  0
 29 27  1  0  0  0  0
M  RAD  2  12   2  26   2
M  END
