Coordinates from ORCA-job Ph-N2-X-OTs-B3LYPG-6-31G_dp-scan-d09-49-n400
 OpenBabel08281821093D

 31 31  0  0  0  0  0  0  0  0999 V2000
   -0.1231    0.2859   -1.3752 C   0  0  0  0  0  0  0  0  0  0  0  0
    0.7269    0.9605   -2.2486 C   0  0  0  0  0  0  0  0  0  0  0  0
    0.2571    2.1680   -2.7888 C   0  0  0  0  0  0  0  0  0  0  0  0
   -1.0072    2.6989   -2.4964 C   0  0  0  0  0  0  0  0  0  0  0  0
   -1.8243    2.0081   -1.6101 C   0  0  0  0  0  0  0  0  0  0  0  0
   -1.3813    0.8033   -1.0531 C   0  0  0  0  0  0  0  0  0  0  0  0
    0.2065   -0.6548   -0.9475 H   0  0  0  0  0  0  0  0  0  0  0  0
    1.7014    0.5603   -2.5157 H   0  0  0  0  0  0  0  0  0  0  0  0
   -1.3204    3.6308   -2.9533 H   0  0  0  0  0  0  0  0  0  0  0  0
   -2.8034    2.4013   -1.3595 H   0  0  0  0  0  0  0  0  0  0  0  0
    1.0479    2.8946   -3.6898 N   0  0  0  0  0  0  0  0  0  0  0  0
    2.0432    3.1286   -4.1985 N   0  0  0  0  0  0  0  0  0  0  0  0
    6.2739    1.3751   -5.3202 C   0  0  0  0  0  0  0  0  0  0  0  0
    7.6674    1.3832   -5.3613 C   0  0  0  0  0  0  0  0  0  0  0  0
    8.4265    0.7901   -4.3427 C   0  0  0  0  0  0  0  0  0  0  0  0
    7.7500    0.1838   -3.2744 C   0  0  0  0  0  0  0  0  0  0  0  0
    6.3577    0.1666   -3.2196 C   0  0  0  0  0  0  0  0  0  0  0  0
    5.6257    0.7671   -4.2449 C   0  0  0  0  0  0  0  0  0  0  0  0
    5.6863    1.8205   -6.1155 H   0  0  0  0  0  0  0  0  0  0  0  0
    8.1741    1.8536   -6.2006 H   0  0  0  0  0  0  0  0  0  0  0  0
    8.3217   -0.2835   -2.4763 H   0  0  0  0  0  0  0  0  0  0  0  0
    5.8353   -0.3154   -2.4004 H   0  0  0  0  0  0  0  0  0  0  0  0
    3.8344    0.7866   -4.1663 S   0  0  0  0  0  0  0  0  0  0  0  0
    3.4197   -0.4210   -3.4140 O   0  0  0  0  0  0  0  0  0  0  0  0
    3.3216    0.9322   -5.5421 O   0  0  0  0  0  0  0  0  0  0  0  0
    3.5108    2.0425   -3.3208 O   0  0  0  0  0  0  0  0  0  0  0  0
    9.9353    0.7737   -4.4111 C   0  0  0  0  0  0  0  0  0  0  0  0
   10.2981   -0.1328   -4.9127 H   0  0  0  0  0  0  0  0  0  0  0  0
   10.3207    1.6306   -4.9717 H   0  0  0  0  0  0  0  0  0  0  0  0
   10.3829    0.7917   -3.4130 H   0  0  0  0  0  0  0  0  0  0  0  0
   -2.0258    0.2608   -0.3680 H   0  0  0  0  0  0  0  0  0  0  0  0
  1  6  1  0  0  0  0
  1  7  1  0  0  0  0
  2  1  2  0  0  0  0
  3  4  2  0  0  0  0
  3  2  1  0  0  0  0
  4  5  1  0  0  0  0
  5 10  1  0  0  0  0
  5  6  2  0  0  0  0
  6 31  1  0  0  0  0
  8  2  1  0  0  0  0
  9  4  1  0  0  0  0
 11  3  1  0  0  0  0
 12 11  2  0  0  0  0
 13 18  1  0  0  0  0
 14 13  2  0  0  0  0
 14 15  1  0  0  0  0
 15 16  2  0  0  0  0
 16 17  1  0  0  0  0
 16 21  1  0  0  0  0
 17 22  1  0  0  0  0
 18 23  1  0  0  0  0
 18 17  2  0  0  0  0
 19 13  1  0  0  0  0
 20 14  1  0  0  0  0
 23 24  2  0  0  0  0
 23 26  1  0  0  0  0
 25 23  2  0  0  0  0
 27 15  1  0  0  0  0
 27 30  1  0  0  0  0
 28 27  1  0  0  0  0
 29 27  1  0  0  0  0
M  RAD  2  12   2  26   2
M  END
