Coordinates from ORCA-job Ph-N2-X-OTs-B3LYPG-6-31G_dp-scan-d09-49-n400
 OpenBabel08281821093D

 31 31  0  0  0  0  0  0  0  0999 V2000
   -0.1126    0.2822   -1.3772 C   0  0  0  0  0  0  0  0  0  0  0  0
    0.7292    0.9579   -2.2578 C   0  0  0  0  0  0  0  0  0  0  0  0
    0.2535    2.1653   -2.7927 C   0  0  0  0  0  0  0  0  0  0  0  0
   -1.0087    2.6953   -2.4889 C   0  0  0  0  0  0  0  0  0  0  0  0
   -1.8171    2.0035   -1.5957 C   0  0  0  0  0  0  0  0  0  0  0  0
   -1.3682    0.7986   -1.0434 C   0  0  0  0  0  0  0  0  0  0  0  0
    0.2214   -0.6585   -0.9530 H   0  0  0  0  0  0  0  0  0  0  0  0
    1.7014    0.5575   -2.5343 H   0  0  0  0  0  0  0  0  0  0  0  0
   -1.3266    3.6273   -2.9423 H   0  0  0  0  0  0  0  0  0  0  0  0
   -2.7943    2.3956   -1.3360 H   0  0  0  0  0  0  0  0  0  0  0  0
    1.0360    2.8927   -3.7000 N   0  0  0  0  0  0  0  0  0  0  0  0
    2.0257    3.1325   -4.2162 N   0  0  0  0  0  0  0  0  0  0  0  0
    6.2782    1.3754   -5.3262 C   0  0  0  0  0  0  0  0  0  0  0  0
    7.6718    1.3787   -5.3614 C   0  0  0  0  0  0  0  0  0  0  0  0
    8.4247    0.7873   -4.3372 C   0  0  0  0  0  0  0  0  0  0  0  0
    7.7417    0.1877   -3.2692 C   0  0  0  0  0  0  0  0  0  0  0  0
    6.3491    0.1755   -3.2201 C   0  0  0  0  0  0  0  0  0  0  0  0
    5.6235    0.7742   -4.2509 C   0  0  0  0  0  0  0  0  0  0  0  0
    5.6954    1.8195   -6.1257 H   0  0  0  0  0  0  0  0  0  0  0  0
    8.1836    1.8438   -6.2005 H   0  0  0  0  0  0  0  0  0  0  0  0
    8.3086   -0.2782   -2.4668 H   0  0  0  0  0  0  0  0  0  0  0  0
    5.8217   -0.3012   -2.4011 H   0  0  0  0  0  0  0  0  0  0  0  0
    3.8319    0.8002   -4.1802 S   0  0  0  0  0  0  0  0  0  0  0  0
    3.4100   -0.4035   -3.4249 O   0  0  0  0  0  0  0  0  0  0  0  0
    3.3255    0.9406   -5.5589 O   0  0  0  0  0  0  0  0  0  0  0  0
    3.5095    2.0603   -3.3417 O   0  0  0  0  0  0  0  0  0  0  0  0
    9.9337    0.7654   -4.3994 C   0  0  0  0  0  0  0  0  0  0  0  0
   10.2954   -0.1437   -4.8970 H   0  0  0  0  0  0  0  0  0  0  0  0
   10.3244    1.6194   -4.9606 H   0  0  0  0  0  0  0  0  0  0  0  0
   10.3772    0.7845   -3.3995 H   0  0  0  0  0  0  0  0  0  0  0  0
   -2.0062    0.2551   -0.3528 H   0  0  0  0  0  0  0  0  0  0  0  0
  1  6  1  0  0  0  0
  1  7  1  0  0  0  0
  2  1  2  0  0  0  0
  3  4  2  0  0  0  0
  3  2  1  0  0  0  0
  4  5  1  0  0  0  0
  5 10  1  0  0  0  0
  5  6  2  0  0  0  0
  6 31  1  0  0  0  0
  8  2  1  0  0  0  0
  9  4  1  0  0  0  0
 11  3  1  0  0  0  0
 12 11  2  0  0  0  0
 13 18  1  0  0  0  0
 14 13  2  0  0  0  0
 14 15  1  0  0  0  0
 15 16  2  0  0  0  0
 16 17  1  0  0  0  0
 16 21  1  0  0  0  0
 17 22  1  0  0  0  0
 18 23  1  0  0  0  0
 18 17  2  0  0  0  0
 19 13  1  0  0  0  0
 20 14  1  0  0  0  0
 23 24  2  0  0  0  0
 23 26  1  0  0  0  0
 25 23  2  0  0  0  0
 27 15  1  0  0  0  0
 27 30  1  0  0  0  0
 28 27  1  0  0  0  0
 29 27  1  0  0  0  0
M  RAD  2  12   2  26   2
M  END
