Coordinates from ORCA-job Ph-N2-X-OTs-B3LYPG-6-31G_dp-scan-d09-49-n400
 OpenBabel08281821093D

 31 31  0  0  0  0  0  0  0  0999 V2000
   -0.6007    0.5935   -1.2621 C   0  0  0  0  0  0  0  0  0  0  0  0
    0.6108    1.0015   -1.8123 C   0  0  0  0  0  0  0  0  0  0  0  0
    0.6030    2.1462   -2.6263 C   0  0  0  0  0  0  0  0  0  0  0  0
   -0.5632    2.8782   -2.8876 C   0  0  0  0  0  0  0  0  0  0  0  0
   -1.7601    2.4467   -2.3274 C   0  0  0  0  0  0  0  0  0  0  0  0
   -1.7765    1.3068   -1.5173 C   0  0  0  0  0  0  0  0  0  0  0  0
   -0.6254   -0.2908   -0.6339 H   0  0  0  0  0  0  0  0  0  0  0  0
    1.5421    0.4754   -1.6439 H   0  0  0  0  0  0  0  0  0  0  0  0
   -0.5142    3.7568   -3.5213 H   0  0  0  0  0  0  0  0  0  0  0  0
   -2.6760    2.9946   -2.5214 H   0  0  0  0  0  0  0  0  0  0  0  0
    1.7803    2.6170   -3.2262 N   0  0  0  0  0  0  0  0  0  0  0  0
    2.8997    2.4356   -3.4305 N   0  0  0  0  0  0  0  0  0  0  0  0
    5.9359    1.1028   -5.0951 C   0  0  0  0  0  0  0  0  0  0  0  0
    7.2514    1.4928   -5.3462 C   0  0  0  0  0  0  0  0  0  0  0  0
    8.3020    1.0742   -4.5192 C   0  0  0  0  0  0  0  0  0  0  0  0
    8.0008    0.2488   -3.4250 C   0  0  0  0  0  0  0  0  0  0  0  0
    6.6927   -0.1500   -3.1619 C   0  0  0  0  0  0  0  0  0  0  0  0
    5.6630    0.2851   -3.9990 C   0  0  0  0  0  0  0  0  0  0  0  0
    5.1250    1.4134   -5.7443 H   0  0  0  0  0  0  0  0  0  0  0  0
    7.4666    2.1274   -6.2026 H   0  0  0  0  0  0  0  0  0  0  0  0
    8.8032   -0.0899   -2.7743 H   0  0  0  0  0  0  0  0  0  0  0  0
    6.4651   -0.8024   -2.3256 H   0  0  0  0  0  0  0  0  0  0  0  0
    3.9729   -0.2030   -3.6496 S   0  0  0  0  0  0  0  0  0  0  0  0
    4.0166   -1.5412   -3.0460 O   0  0  0  0  0  0  0  0  0  0  0  0
    3.1914    0.0068   -4.8805 O   0  0  0  0  0  0  0  0  0  0  0  0
    3.4980    0.8095   -2.5465 O   0  0  0  0  0  0  0  0  0  0  0  0
    9.7286    1.4718   -4.8155 C   0  0  0  0  0  0  0  0  0  0  0  0
   10.2474    0.6878   -5.3820 H   0  0  0  0  0  0  0  0  0  0  0  0
    9.7732    2.3884   -5.4111 H   0  0  0  0  0  0  0  0  0  0  0  0
   10.2981    1.6355   -3.8955 H   0  0  0  0  0  0  0  0  0  0  0  0
   -2.7128    0.9718   -1.0817 H   0  0  0  0  0  0  0  0  0  0  0  0
  1  7  1  0  0  0  0
  2  8  1  0  0  0  0
  2  1  2  0  0  0  0
  3  2  1  0  0  0  0
  4  3  2  0  0  0  0
  4  5  1  0  0  0  0
  5  6  2  0  0  0  0
  6  1  1  0  0  0  0
  6 31  1  0  0  0  0
  9  4  1  0  0  0  0
 10  5  1  0  0  0  0
 11  3  1  0  0  0  0
 12 11  2  0  0  0  0
 13 18  1  0  0  0  0
 14 13  2  0  0  0  0
 14 15  1  0  0  0  0
 15 16  2  0  0  0  0
 16 17  1  0  0  0  0
 16 21  1  0  0  0  0
 17 22  1  0  0  0  0
 18 23  1  0  0  0  0
 18 17  2  0  0  0  0
 19 13  1  0  0  0  0
 20 14  1  0  0  0  0
 23 24  2  0  0  0  0
 23 26  1  0  0  0  0
 25 23  2  0  0  0  0
 27 15  1  0  0  0  0
 27 30  1  0  0  0  0
 28 27  1  0  0  0  0
 29 27  1  0  0  0  0
M  RAD  2  12   2  26   2
M  END
