Coordinates from ORCA-job Ph-N2-X-OTs-B3LYPG-6-31G_dp-scan-d09-49-n400
 OpenBabel08281821093D

 31 31  0  0  0  0  0  0  0  0999 V2000
   -0.5929    0.6379   -1.2110 C   0  0  0  0  0  0  0  0  0  0  0  0
    0.6048    0.9957   -1.8230 C   0  0  0  0  0  0  0  0  0  0  0  0
    0.5967    2.1225   -2.6619 C   0  0  0  0  0  0  0  0  0  0  0  0
   -0.5580    2.8843   -2.8875 C   0  0  0  0  0  0  0  0  0  0  0  0
   -1.7414    2.5035   -2.2652 C   0  0  0  0  0  0  0  0  0  0  0  0
   -1.7568    1.3822   -1.4296 C   0  0  0  0  0  0  0  0  0  0  0  0
   -0.6164   -0.2316   -0.5622 H   0  0  0  0  0  0  0  0  0  0  0  0
    1.5254    0.4431   -1.6834 H   0  0  0  0  0  0  0  0  0  0  0  0
   -0.5106    3.7470   -3.5429 H   0  0  0  0  0  0  0  0  0  0  0  0
   -2.6478    3.0761   -2.4311 H   0  0  0  0  0  0  0  0  0  0  0  0
    1.7574    2.5463   -3.3270 N   0  0  0  0  0  0  0  0  0  0  0  0
    2.8630    2.3200   -3.5689 N   0  0  0  0  0  0  0  0  0  0  0  0
    5.9454    1.0749   -5.1247 C   0  0  0  0  0  0  0  0  0  0  0  0
    7.2561    1.5010   -5.3385 C   0  0  0  0  0  0  0  0  0  0  0  0
    8.2959    1.1018   -4.4885 C   0  0  0  0  0  0  0  0  0  0  0  0
    7.9888    0.2584   -3.4098 C   0  0  0  0  0  0  0  0  0  0  0  0
    6.6851   -0.1761   -3.1834 C   0  0  0  0  0  0  0  0  0  0  0  0
    5.6662    0.2404   -4.0428 C   0  0  0  0  0  0  0  0  0  0  0  0
    5.1437    1.3703   -5.7923 H   0  0  0  0  0  0  0  0  0  0  0  0
    7.4764    2.1492   -6.1832 H   0  0  0  0  0  0  0  0  0  0  0  0
    8.7831   -0.0660   -2.7421 H   0  0  0  0  0  0  0  0  0  0  0  0
    6.4529   -0.8422   -2.3593 H   0  0  0  0  0  0  0  0  0  0  0  0
    3.9809   -0.2940   -3.7416 S   0  0  0  0  0  0  0  0  0  0  0  0
    4.0436   -1.6204   -3.1152 O   0  0  0  0  0  0  0  0  0  0  0  0
    3.2335   -0.1217   -4.9979 O   0  0  0  0  0  0  0  0  0  0  0  0
    3.4419    0.7193   -2.6641 O   0  0  0  0  0  0  0  0  0  0  0  0
    9.7188    1.5388   -4.7448 C   0  0  0  0  0  0  0  0  0  0  0  0
   10.2721    0.7732   -5.3037 H   0  0  0  0  0  0  0  0  0  0  0  0
    9.7546    2.4611   -5.3319 H   0  0  0  0  0  0  0  0  0  0  0  0
   10.2599    1.7096   -3.8091 H   0  0  0  0  0  0  0  0  0  0  0  0
   -2.6824    1.0863   -0.9455 H   0  0  0  0  0  0  0  0  0  0  0  0
  1  7  1  0  0  0  0
  2  8  1  0  0  0  0
  2  1  2  0  0  0  0
  3  2  1  0  0  0  0
  4  3  2  0  0  0  0
  4  5  1  0  0  0  0
  5  6  2  0  0  0  0
  6  1  1  0  0  0  0
  6 31  1  0  0  0  0
  9  4  1  0  0  0  0
 10  5  1  0  0  0  0
 11  3  1  0  0  0  0
 12 11  2  0  0  0  0
 13 18  1  0  0  0  0
 14 13  2  0  0  0  0
 14 15  1  0  0  0  0
 15 16  2  0  0  0  0
 16 17  1  0  0  0  0
 16 21  1  0  0  0  0
 17 22  1  0  0  0  0
 18 23  1  0  0  0  0
 18 17  2  0  0  0  0
 19 13  1  0  0  0  0
 20 14  1  0  0  0  0
 23 24  2  0  0  0  0
 23 26  1  0  0  0  0
 25 23  2  0  0  0  0
 27 15  1  0  0  0  0
 27 30  1  0  0  0  0
 28 27  1  0  0  0  0
 29 27  1  0  0  0  0
M  RAD  2  12   2  26   2
M  END
