Coordinates from ORCA-job Ph-N2-X-OTs-B3LYPG-6-31G_dp-scan-d09-49-n400
 OpenBabel08281821093D

 31 31  0  0  0  0  0  0  0  0999 V2000
   -0.5519    0.4671   -1.4005 C   0  0  0  0  0  0  0  0  0  0  0  0
    0.6538    1.0169   -1.8247 C   0  0  0  0  0  0  0  0  0  0  0  0
    0.5980    2.2089   -2.5653 C   0  0  0  0  0  0  0  0  0  0  0  0
   -0.6071    2.8522   -2.8774 C   0  0  0  0  0  0  0  0  0  0  0  0
   -1.7965    2.2787   -2.4430 C   0  0  0  0  0  0  0  0  0  0  0  0
   -1.7665    1.0894   -1.7075 C   0  0  0  0  0  0  0  0  0  0  0  0
   -0.5407   -0.4569   -0.8323 H   0  0  0  0  0  0  0  0  0  0  0  0
    1.6154    0.5668   -1.6111 H   0  0  0  0  0  0  0  0  0  0  0  0
   -0.5931    3.7727   -3.4500 H   0  0  0  0  0  0  0  0  0  0  0  0
   -2.7426    2.7546   -2.6771 H   0  0  0  0  0  0  0  0  0  0  0  0
    1.7722    2.8157   -3.0300 N   0  0  0  0  0  0  0  0  0  0  0  0
    2.9121    2.7718   -3.1595 N   0  0  0  0  0  0  0  0  0  0  0  0
    5.9260    1.1850   -5.0316 C   0  0  0  0  0  0  0  0  0  0  0  0
    7.2520    1.4619   -5.3628 C   0  0  0  0  0  0  0  0  0  0  0  0
    8.3102    0.9850   -4.5774 C   0  0  0  0  0  0  0  0  0  0  0  0
    8.0050    0.2178   -3.4434 C   0  0  0  0  0  0  0  0  0  0  0  0
    6.6856   -0.0691   -3.1009 C   0  0  0  0  0  0  0  0  0  0  0  0
    5.6494    0.4221   -3.8973 C   0  0  0  0  0  0  0  0  0  0  0  0
    5.1076    1.5414   -5.6469 H   0  0  0  0  0  0  0  0  0  0  0  0
    7.4691    2.0533   -6.2491 H   0  0  0  0  0  0  0  0  0  0  0  0
    8.8124   -0.1636   -2.8235 H   0  0  0  0  0  0  0  0  0  0  0  0
    6.4541   -0.6763   -2.2322 H   0  0  0  0  0  0  0  0  0  0  0  0
    3.9479    0.0827   -3.4416 S   0  0  0  0  0  0  0  0  0  0  0  0
    3.9119   -1.2621   -2.8480 O   0  0  0  0  0  0  0  0  0  0  0  0
    3.1108    0.3588   -4.6251 O   0  0  0  0  0  0  0  0  0  0  0  0
    3.6285    1.1243   -2.3203 O   0  0  0  0  0  0  0  0  0  0  0  0
    9.7446    1.2611   -4.9615 C   0  0  0  0  0  0  0  0  0  0  0  0
   10.1271    0.4886   -5.6407 H   0  0  0  0  0  0  0  0  0  0  0  0
    9.8431    2.2219   -5.4761 H   0  0  0  0  0  0  0  0  0  0  0  0
   10.3985    1.2763   -4.0845 H   0  0  0  0  0  0  0  0  0  0  0  0
   -2.6975    0.6440   -1.3708 H   0  0  0  0  0  0  0  0  0  0  0  0
  1  7  1  0  0  0  0
  2  8  1  0  0  0  0
  2  1  2  0  0  0  0
  3  2  1  0  0  0  0
  4  3  2  0  0  0  0
  4  5  1  0  0  0  0
  5  6  2  0  0  0  0
  6  1  1  0  0  0  0
  6 31  1  0  0  0  0
  9  4  1  0  0  0  0
 10  5  1  0  0  0  0
 11  3  1  0  0  0  0
 12 11  2  0  0  0  0
 13 18  1  0  0  0  0
 14 13  2  0  0  0  0
 14 15  1  0  0  0  0
 15 16  2  0  0  0  0
 16 17  1  0  0  0  0
 16 21  1  0  0  0  0
 17 22  1  0  0  0  0
 18 23  1  0  0  0  0
 18 17  2  0  0  0  0
 19 13  1  0  0  0  0
 20 14  1  0  0  0  0
 23 24  2  0  0  0  0
 23 26  1  0  0  0  0
 25 23  2  0  0  0  0
 27 15  1  0  0  0  0
 27 30  1  0  0  0  0
 28 27  1  0  0  0  0
 29 27  1  0  0  0  0
M  RAD  2  12   2  26   2
M  END
