Coordinates from ORCA-job Ph-N2-X-OTs-B3LYPG-6-31G_dp-scan-d09-49-n400
 OpenBabel08281821093D

 31 31  0  0  0  0  0  0  0  0999 V2000
   -0.2025    1.0231   -0.8516 C   0  0  0  0  0  0  0  0  0  0  0  0
    0.8208    1.0649   -1.7947 C   0  0  0  0  0  0  0  0  0  0  0  0
    0.6912    1.9607   -2.8680 C   0  0  0  0  0  0  0  0  0  0  0  0
   -0.4194    2.8065   -2.9979 C   0  0  0  0  0  0  0  0  0  0  0  0
   -1.4349    2.7378   -2.0505 C   0  0  0  0  0  0  0  0  0  0  0  0
   -1.3248    1.8472   -0.9786 C   0  0  0  0  0  0  0  0  0  0  0  0
   -0.1223    0.3384   -0.0132 H   0  0  0  0  0  0  0  0  0  0  0  0
    1.6965    0.4370   -1.7172 H   0  0  0  0  0  0  0  0  0  0  0  0
   -0.4706    3.4901   -3.8385 H   0  0  0  0  0  0  0  0  0  0  0  0
   -2.3062    3.3779   -2.1442 H   0  0  0  0  0  0  0  0  0  0  0  0
    1.6721    2.0909   -3.8659 N   0  0  0  0  0  0  0  0  0  0  0  0
    2.6256    1.5966   -4.3145 N   0  0  0  0  0  0  0  0  0  0  0  0
    5.9117    0.9181   -5.3206 C   0  0  0  0  0  0  0  0  0  0  0  0
    7.1501    1.5570   -5.2579 C   0  0  0  0  0  0  0  0  0  0  0  0
    8.0637    1.2689   -4.2350 C   0  0  0  0  0  0  0  0  0  0  0  0
    7.7047    0.3175   -3.2679 C   0  0  0  0  0  0  0  0  0  0  0  0
    6.4721   -0.3291   -3.3162 C   0  0  0  0  0  0  0  0  0  0  0  0
    5.5778   -0.0193   -4.3433 C   0  0  0  0  0  0  0  0  0  0  0  0
    5.2113    1.1277   -6.1214 H   0  0  0  0  0  0  0  0  0  0  0  0
    7.4142    2.2864   -6.0195 H   0  0  0  0  0  0  0  0  0  0  0  0
    8.4038    0.0772   -2.4706 H   0  0  0  0  0  0  0  0  0  0  0  0
    6.2038   -1.0787   -2.5795 H   0  0  0  0  0  0  0  0  0  0  0  0
    3.9815   -0.8346   -4.4000 S   0  0  0  0  0  0  0  0  0  0  0  0
    4.1356   -2.1513   -3.7731 O   0  0  0  0  0  0  0  0  0  0  0  0
    3.4788   -0.7299   -5.7733 O   0  0  0  0  0  0  0  0  0  0  0  0
    3.0752    0.0450   -3.4280 O   0  0  0  0  0  0  0  0  0  0  0  0
    9.4168    1.9390   -4.1908 C   0  0  0  0  0  0  0  0  0  0  0  0
   10.1875    1.2993   -4.6384 H   0  0  0  0  0  0  0  0  0  0  0  0
    9.4145    2.8828   -4.7429 H   0  0  0  0  0  0  0  0  0  0  0  0
    9.7272    2.1465   -3.1622 H   0  0  0  0  0  0  0  0  0  0  0  0
   -2.1162    1.7971   -0.2363 H   0  0  0  0  0  0  0  0  0  0  0  0
  1  7  1  0  0  0  0
  2  8  1  0  0  0  0
  2  1  2  0  0  0  0
  3  2  1  0  0  0  0
  4  3  2  0  0  0  0
  4  5  1  0  0  0  0
  5  6  2  0  0  0  0
  6  1  1  0  0  0  0
  6 31  1  0  0  0  0
  9  4  1  0  0  0  0
 10  5  1  0  0  0  0
 11  3  1  0  0  0  0
 12 11  2  0  0  0  0
 13 14  2  0  0  0  0
 13 18  1  0  0  0  0
 14 15  1  0  0  0  0
 15 27  1  0  0  0  0
 15 16  2  0  0  0  0
 16 21  1  0  0  0  0
 17 16  1  0  0  0  0
 17 22  1  0  0  0  0
 18 17  2  0  0  0  0
 19 13  1  0  0  0  0
 20 14  1  0  0  0  0
 23 18  1  0  0  0  0
 23 24  2  0  0  0  0
 23 26  1  0  0  0  0
 25 23  2  0  0  0  0
 27 30  1  0  0  0  0
 28 27  1  0  0  0  0
 29 27  1  0  0  0  0
M  RAD  2  12   2  26   2
M  END
