Coordinates from ORCA-job Ph-N2-X-OTs-B3LYPG-6-31G_dp-scan-d09-49-n400
 OpenBabel08281821093D

 31 31  0  0  0  0  0  0  0  0999 V2000
   -0.6023    0.6025   -1.2534 C   0  0  0  0  0  0  0  0  0  0  0  0
    0.6084    0.9994   -1.8133 C   0  0  0  0  0  0  0  0  0  0  0  0
    0.6037    2.1412   -2.6315 C   0  0  0  0  0  0  0  0  0  0  0  0
   -0.5589    2.8809   -2.8873 C   0  0  0  0  0  0  0  0  0  0  0  0
   -1.7551    2.4605   -2.3173 C   0  0  0  0  0  0  0  0  0  0  0  0
   -1.7746    1.3236   -1.5030 C   0  0  0  0  0  0  0  0  0  0  0  0
   -0.6293   -0.2794   -0.6217 H   0  0  0  0  0  0  0  0  0  0  0  0
    1.5368    0.4668   -1.6495 H   0  0  0  0  0  0  0  0  0  0  0  0
   -0.5076    3.7568   -3.5246 H   0  0  0  0  0  0  0  0  0  0  0  0
   -2.6682    3.0145   -2.5070 H   0  0  0  0  0  0  0  0  0  0  0  0
    1.7800    2.6014   -3.2417 N   0  0  0  0  0  0  0  0  0  0  0  0
    2.8969    2.4099   -3.4520 N   0  0  0  0  0  0  0  0  0  0  0  0
    5.9364    1.0956   -5.1005 C   0  0  0  0  0  0  0  0  0  0  0  0
    7.2505    1.4942   -5.3452 C   0  0  0  0  0  0  0  0  0  0  0  0
    8.2999    1.0811   -4.5141 C   0  0  0  0  0  0  0  0  0  0  0  0
    7.9991    0.2521   -3.4224 C   0  0  0  0  0  0  0  0  0  0  0  0
    6.6924   -0.1553   -3.1657 C   0  0  0  0  0  0  0  0  0  0  0  0
    5.6637    0.2746   -4.0068 C   0  0  0  0  0  0  0  0  0  0  0  0
    5.1265    1.4019   -5.7530 H   0  0  0  0  0  0  0  0  0  0  0  0
    7.4655    2.1314   -6.1996 H   0  0  0  0  0  0  0  0  0  0  0  0
    8.8007   -0.0825   -2.7686 H   0  0  0  0  0  0  0  0  0  0  0  0
    6.4651   -0.8104   -2.3314 H   0  0  0  0  0  0  0  0  0  0  0  0
    3.9751   -0.2249   -3.6659 S   0  0  0  0  0  0  0  0  0  0  0  0
    4.0248   -1.5619   -3.0603 O   0  0  0  0  0  0  0  0  0  0  0  0
    3.1987   -0.0212   -4.9008 O   0  0  0  0  0  0  0  0  0  0  0  0
    3.4878    0.7856   -2.5656 O   0  0  0  0  0  0  0  0  0  0  0  0
    9.7254    1.4880   -4.8034 C   0  0  0  0  0  0  0  0  0  0  0  0
   10.2517    0.7078   -5.3682 H   0  0  0  0  0  0  0  0  0  0  0  0
    9.7669    2.4054   -5.3979 H   0  0  0  0  0  0  0  0  0  0  0  0
   10.2895    1.6545   -3.8806 H   0  0  0  0  0  0  0  0  0  0  0  0
   -2.7102    0.9972   -1.0597 H   0  0  0  0  0  0  0  0  0  0  0  0
  1  7  1  0  0  0  0
  2  8  1  0  0  0  0
  2  1  2  0  0  0  0
  3  2  1  0  0  0  0
  4  3  2  0  0  0  0
  4  5  1  0  0  0  0
  5  6  2  0  0  0  0
  6  1  1  0  0  0  0
  6 31  1  0  0  0  0
  9  4  1  0  0  0  0
 10  5  1  0  0  0  0
 11  3  1  0  0  0  0
 12 11  2  0  0  0  0
 13 18  1  0  0  0  0
 14 13  2  0  0  0  0
 14 15  1  0  0  0  0
 15 16  2  0  0  0  0
 16 17  1  0  0  0  0
 16 21  1  0  0  0  0
 17 22  1  0  0  0  0
 18 23  1  0  0  0  0
 18 17  2  0  0  0  0
 19 13  1  0  0  0  0
 20 14  1  0  0  0  0
 23 24  2  0  0  0  0
 23 26  1  0  0  0  0
 25 23  2  0  0  0  0
 27 15  1  0  0  0  0
 27 30  1  0  0  0  0
 28 27  1  0  0  0  0
 29 27  1  0  0  0  0
M  RAD  2  12   2  26   2
M  END
