Coordinates from ORCA-job Ph-N2-X-OTs-B3LYPG-6-31G_dp-scan-d09-49-n400
 OpenBabel08281821093D

 31 31  0  0  0  0  0  0  0  0999 V2000
    0.2265   -0.0565   -1.8299 C   0  0  0  0  0  0  0  0  0  0  0  0
    0.8905    0.9119   -2.5910 C   0  0  0  0  0  0  0  0  0  0  0  0
    0.2099    2.1353   -2.7043 C   0  0  0  0  0  0  0  0  0  0  0  0
   -1.0436    2.4350   -2.1369 C   0  0  0  0  0  0  0  0  0  0  0  0
   -1.6513    1.4388   -1.3914 C   0  0  0  0  0  0  0  0  0  0  0  0
   -1.0134    0.1958   -1.2407 C   0  0  0  0  0  0  0  0  0  0  0  0
    0.6949   -1.0280   -1.7027 H   0  0  0  0  0  0  0  0  0  0  0  0
    1.9256    0.7318   -3.1287 H   0  0  0  0  0  0  0  0  0  0  0  0
   -1.5017    3.4079   -2.2795 H   0  0  0  0  0  0  0  0  0  0  0  0
   -2.6163    1.6199   -0.9315 H   0  0  0  0  0  0  0  0  0  0  0  0
    0.8282    3.1323   -3.4520 N   0  0  0  0  0  0  0  0  0  0  0  0
    1.5101    3.8063   -4.0327 N   0  0  0  0  0  0  0  0  0  0  0  0
    6.2564    0.7968   -5.4756 C   0  0  0  0  0  0  0  0  0  0  0  0
    7.6085    0.4667   -5.3776 C   0  0  0  0  0  0  0  0  0  0  0  0
    8.3059    0.6180   -4.1726 C   0  0  0  0  0  0  0  0  0  0  0  0
    7.6133    1.1230   -3.0611 C   0  0  0  0  0  0  0  0  0  0  0  0
    6.2637    1.4551   -3.1434 C   0  0  0  0  0  0  0  0  0  0  0  0
    5.5886    1.2855   -4.3542 C   0  0  0  0  0  0  0  0  0  0  0  0
    5.7166    0.6936   -6.4106 H   0  0  0  0  0  0  0  0  0  0  0  0
    8.1306    0.0896   -6.2536 H   0  0  0  0  0  0  0  0  0  0  0  0
    8.1421    1.2635   -2.1212 H   0  0  0  0  0  0  0  0  0  0  0  0
    5.7381    1.8622   -2.2862 H   0  0  0  0  0  0  0  0  0  0  0  0
    3.8387    1.6638   -4.4706 S   0  0  0  0  0  0  0  0  0  0  0  0
    3.1330    0.5001   -3.8012 O   0  0  0  0  0  0  0  0  0  0  0  0
    3.5065    1.8038   -5.8998 O   0  0  0  0  0  0  0  0  0  0  0  0
    3.6410    2.9119   -3.6527 O   0  0  0  0  0  0  0  0  0  0  0  0
    9.7623    0.2324   -4.0626 C   0  0  0  0  0  0  0  0  0  0  0  0
    9.8747   -0.7602   -3.6082 H   0  0  0  0  0  0  0  0  0  0  0  0
   10.2428    0.1982   -5.0443 H   0  0  0  0  0  0  0  0  0  0  0  0
   10.3180    0.9377   -3.4366 H   0  0  0  0  0  0  0  0  0  0  0  0
   -1.5005   -0.5814   -0.6586 H   0  0  0  0  0  0  0  0  0  0  0  0
  1  7  1  0  0  0  0
  1  6  2  0  0  0  0
  2  1  1  0  0  0  0
  3  2  2  0  0  0  0
  3  4  1  0  0  0  0
  4  5  2  0  0  0  0
  5  6  1  0  0  0  0
  5 10  1  0  0  0  0
  6 31  1  0  0  0  0
  8  2  1  0  0  0  0
  9  4  1  0  0  0  0
 11  3  1  0  0  0  0
 12 11  1  0  0  0  0
 13 14  2  0  0  0  0
 13 18  1  0  0  0  0
 14 15  1  0  0  0  0
 15 27  1  0  0  0  0
 15 16  2  0  0  0  0
 16 21  1  0  0  0  0
 17 16  1  0  0  0  0
 17 22  1  0  0  0  0
 18 17  2  0  0  0  0
 19 13  1  0  0  0  0
 20 14  1  0  0  0  0
 23 18  1  0  0  0  0
 23 24  2  0  0  0  0
 23 26  1  0  0  0  0
 25 23  2  0  0  0  0
 27 28  1  0  0  0  0
 27 30  1  0  0  0  0
 29 27  1  0  0  0  0
M  RAD  3  11   2  12   3  26   2
M  END
