Coordinates from ORCA-job Ph-N2-X-OTs-B3LYPG-6-31G_dp-scan-d09-49-n400
 OpenBabel08281821093D

 31 31  0  0  0  0  0  0  0  0999 V2000
   -0.5857    0.6246   -1.2190 C   0  0  0  0  0  0  0  0  0  0  0  0
    0.6105    1.0023   -1.8220 C   0  0  0  0  0  0  0  0  0  0  0  0
    0.5909    2.1321   -2.6567 C   0  0  0  0  0  0  0  0  0  0  0  0
   -0.5734    2.8779   -2.8866 C   0  0  0  0  0  0  0  0  0  0  0  0
   -1.7549    2.4773   -2.2733 C   0  0  0  0  0  0  0  0  0  0  0  0
   -1.7590    1.3525   -1.4422 C   0  0  0  0  0  0  0  0  0  0  0  0
   -0.6004   -0.2478   -0.5737 H   0  0  0  0  0  0  0  0  0  0  0  0
    1.5385    0.4631   -1.6788 H   0  0  0  0  0  0  0  0  0  0  0  0
   -0.5346    3.7437   -3.5384 H   0  0  0  0  0  0  0  0  0  0  0  0
   -2.6686    3.0371   -2.4427 H   0  0  0  0  0  0  0  0  0  0  0  0
    1.7493    2.5751   -3.3134 N   0  0  0  0  0  0  0  0  0  0  0  0
    2.8590    2.3643   -3.5501 N   0  0  0  0  0  0  0  0  0  0  0  0
    5.9497    1.0866   -5.1212 C   0  0  0  0  0  0  0  0  0  0  0  0
    7.2644    1.4968   -5.3417 C   0  0  0  0  0  0  0  0  0  0  0  0
    8.3029    1.0888   -4.4944 C   0  0  0  0  0  0  0  0  0  0  0  0
    7.9903    0.2533   -3.4111 C   0  0  0  0  0  0  0  0  0  0  0  0
    6.6827   -0.1653   -3.1780 C   0  0  0  0  0  0  0  0  0  0  0  0
    5.6652    0.2595   -4.0350 C   0  0  0  0  0  0  0  0  0  0  0  0
    5.1487    1.3888   -5.7866 H   0  0  0  0  0  0  0  0  0  0  0  0
    7.4887    2.1391   -6.1899 H   0  0  0  0  0  0  0  0  0  0  0  0
    8.7835   -0.0775   -2.7452 H   0  0  0  0  0  0  0  0  0  0  0  0
    6.4462   -0.8254   -2.3502 H   0  0  0  0  0  0  0  0  0  0  0  0
    3.9752   -0.2543   -3.7254 S   0  0  0  0  0  0  0  0  0  0  0  0
    4.0246   -1.5803   -3.0966 O   0  0  0  0  0  0  0  0  0  0  0  0
    3.2246   -0.0758   -4.9790 O   0  0  0  0  0  0  0  0  0  0  0  0
    3.4523    0.7665   -2.6477 O   0  0  0  0  0  0  0  0  0  0  0  0
    9.7297    1.5083   -4.7580 C   0  0  0  0  0  0  0  0  0  0  0  0
   10.2718    0.7344   -5.3163 H   0  0  0  0  0  0  0  0  0  0  0  0
    9.7737    2.4281   -5.3486 H   0  0  0  0  0  0  0  0  0  0  0  0
   10.2766    1.6762   -3.8251 H   0  0  0  0  0  0  0  0  0  0  0  0
   -2.6832    1.0410   -0.9652 H   0  0  0  0  0  0  0  0  0  0  0  0
  1  7  1  0  0  0  0
  2  8  1  0  0  0  0
  2  1  2  0  0  0  0
  3  2  1  0  0  0  0
  4  3  2  0  0  0  0
  4  5  1  0  0  0  0
  5  6  2  0  0  0  0
  6  1  1  0  0  0  0
  6 31  1  0  0  0  0
  9  4  1  0  0  0  0
 10  5  1  0  0  0  0
 11  3  1  0  0  0  0
 12 11  2  0  0  0  0
 13 18  1  0  0  0  0
 14 13  2  0  0  0  0
 14 15  1  0  0  0  0
 15 16  2  0  0  0  0
 16 17  1  0  0  0  0
 16 21  1  0  0  0  0
 17 22  1  0  0  0  0
 18 23  1  0  0  0  0
 18 17  2  0  0  0  0
 19 13  1  0  0  0  0
 20 14  1  0  0  0  0
 23 24  2  0  0  0  0
 23 26  1  0  0  0  0
 25 23  2  0  0  0  0
 27 15  1  0  0  0  0
 27 30  1  0  0  0  0
 28 27  1  0  0  0  0
 29 27  1  0  0  0  0
M  RAD  2  12   2  26   2
M  END
