Coordinates from ORCA-job Ph-N2-X-OTs-B3LYPG-6-31G_dp-scan-d09-49-n400
 OpenBabel08281821093D

 31 31  0  0  0  0  0  0  0  0999 V2000
    0.0066    1.4029   -0.6388 C   0  0  0  0  0  0  0  0  0  0  0  0
    1.0232    1.5655   -1.5763 C   0  0  0  0  0  0  0  0  0  0  0  0
    0.6797    2.0525   -2.8441 C   0  0  0  0  0  0  0  0  0  0  0  0
   -0.6336    2.4065   -3.1731 C   0  0  0  0  0  0  0  0  0  0  0  0
   -1.6375    2.2085   -2.2300 C   0  0  0  0  0  0  0  0  0  0  0  0
   -1.3177    1.7094   -0.9645 C   0  0  0  0  0  0  0  0  0  0  0  0
    0.2522    1.0287    0.3496 H   0  0  0  0  0  0  0  0  0  0  0  0
    2.0531    1.3449   -1.3325 H   0  0  0  0  0  0  0  0  0  0  0  0
   -0.8492    2.8082   -4.1568 H   0  0  0  0  0  0  0  0  0  0  0  0
   -2.6643    2.4564   -2.4779 H   0  0  0  0  0  0  0  0  0  0  0  0
    1.6609    2.2924   -3.8306 N   0  0  0  0  0  0  0  0  0  0  0  0
    2.6438    1.8351   -4.2579 N   0  0  0  0  0  0  0  0  0  0  0  0
    5.9210    1.0819   -5.2745 C   0  0  0  0  0  0  0  0  0  0  0  0
    7.2031    1.6207   -5.1726 C   0  0  0  0  0  0  0  0  0  0  0  0
    8.1113    1.1553   -4.2122 C   0  0  0  0  0  0  0  0  0  0  0  0
    7.7010    0.1276   -3.3499 C   0  0  0  0  0  0  0  0  0  0  0  0
    6.4235   -0.4206   -3.4375 C   0  0  0  0  0  0  0  0  0  0  0  0
    5.5364    0.0661   -4.3995 C   0  0  0  0  0  0  0  0  0  0  0  0
    5.2243    1.4314   -6.0285 H   0  0  0  0  0  0  0  0  0  0  0  0
    7.5041    2.4122   -5.8543 H   0  0  0  0  0  0  0  0  0  0  0  0
    8.3940   -0.2513   -2.6027 H   0  0  0  0  0  0  0  0  0  0  0  0
    6.1148   -1.2275   -2.7813 H   0  0  0  0  0  0  0  0  0  0  0  0
    3.8803   -0.6131   -4.5000 S   0  0  0  0  0  0  0  0  0  0  0  0
    3.9315   -1.9874   -3.9928 O   0  0  0  0  0  0  0  0  0  0  0  0
    3.3726   -0.3498   -5.8505 O   0  0  0  0  0  0  0  0  0  0  0  0
    3.0548    0.2547   -3.4426 O   0  0  0  0  0  0  0  0  0  0  0  0
    9.5093    1.7204   -4.1278 C   0  0  0  0  0  0  0  0  0  0  0  0
   10.2183    1.1025   -4.6924 H   0  0  0  0  0  0  0  0  0  0  0  0
    9.5577    2.7319   -4.5406 H   0  0  0  0  0  0  0  0  0  0  0  0
    9.8649    1.7573   -3.0934 H   0  0  0  0  0  0  0  0  0  0  0  0
   -2.1008    1.5674   -0.2262 H   0  0  0  0  0  0  0  0  0  0  0  0
  1  7  1  0  0  0  0
  2  8  1  0  0  0  0
  2  1  2  0  0  0  0
  3  2  1  0  0  0  0
  4  3  2  0  0  0  0
  4  5  1  0  0  0  0
  5  6  2  0  0  0  0
  6  1  1  0  0  0  0
  6 31  1  0  0  0  0
  9  4  1  0  0  0  0
 10  5  1  0  0  0  0
 11  3  1  0  0  0  0
 12 11  2  0  0  0  0
 13 14  2  0  0  0  0
 13 18  1  0  0  0  0
 14 15  1  0  0  0  0
 15 27  1  0  0  0  0
 15 16  2  0  0  0  0
 16 21  1  0  0  0  0
 17 16  1  0  0  0  0
 17 22  1  0  0  0  0
 18 17  2  0  0  0  0
 19 13  1  0  0  0  0
 20 14  1  0  0  0  0
 23 18  1  0  0  0  0
 23 24  2  0  0  0  0
 23 26  1  0  0  0  0
 25 23  2  0  0  0  0
 27 30  1  0  0  0  0
 28 27  1  0  0  0  0
 29 27  1  0  0  0  0
M  RAD  2  12   2  26   2
M  END
