Coordinates from ORCA-job Ph-N2-X-OTs-B3LYPG-6-31G_dp-scan-d09-49-n400
 OpenBabel08281821093D

 31 31  0  0  0  0  0  0  0  0999 V2000
   -0.0597    1.2645   -0.7043 C   0  0  0  0  0  0  0  0  0  0  0  0
    0.9595    1.3634   -1.6477 C   0  0  0  0  0  0  0  0  0  0  0  0
    0.6752    2.0094   -2.8596 C   0  0  0  0  0  0  0  0  0  0  0  0
   -0.5804    2.5708   -3.1252 C   0  0  0  0  0  0  0  0  0  0  0  0
   -1.5903    2.4386   -2.1776 C   0  0  0  0  0  0  0  0  0  0  0  0
   -1.3290    1.7876   -0.9686 C   0  0  0  0  0  0  0  0  0  0  0  0
    0.1396    0.7710    0.2413 H   0  0  0  0  0  0  0  0  0  0  0  0
    1.9477    0.9716   -1.4564 H   0  0  0  0  0  0  0  0  0  0  0  0
   -0.7472    3.0817   -4.0669 H   0  0  0  0  0  0  0  0  0  0  0  0
   -2.5737    2.8510   -2.3767 H   0  0  0  0  0  0  0  0  0  0  0  0
    1.6542    2.1885   -3.8559 N   0  0  0  0  0  0  0  0  0  0  0  0
    2.6265    1.7184   -4.2902 N   0  0  0  0  0  0  0  0  0  0  0  0
    5.9089    1.0316   -5.2737 C   0  0  0  0  0  0  0  0  0  0  0  0
    7.1726    1.6150   -5.1867 C   0  0  0  0  0  0  0  0  0  0  0  0
    8.0976    1.2009   -4.2189 C   0  0  0  0  0  0  0  0  0  0  0  0
    7.7234    0.1791   -3.3332 C   0  0  0  0  0  0  0  0  0  0  0  0
    6.4645   -0.4128   -3.4056 C   0  0  0  0  0  0  0  0  0  0  0  0
    5.5598    0.0230   -4.3757 C   0  0  0  0  0  0  0  0  0  0  0  0
    5.1998    1.3403   -6.0338 H   0  0  0  0  0  0  0  0  0  0  0  0
    7.4466    2.4010   -5.8860 H   0  0  0  0  0  0  0  0  0  0  0  0
    8.4306   -0.1602   -2.5803 H   0  0  0  0  0  0  0  0  0  0  0  0
    6.1835   -1.2153   -2.7320 H   0  0  0  0  0  0  0  0  0  0  0  0
    3.9276   -0.7155   -4.4586 S   0  0  0  0  0  0  0  0  0  0  0  0
    4.0278   -2.0720   -3.9109 O   0  0  0  0  0  0  0  0  0  0  0  0
    3.4169   -0.5122   -5.8184 O   0  0  0  0  0  0  0  0  0  0  0  0
    3.0702    0.1539   -3.4318 O   0  0  0  0  0  0  0  0  0  0  0  0
    9.4762    1.8141   -4.1498 C   0  0  0  0  0  0  0  0  0  0  0  0
   10.2116    1.1893   -4.6716 H   0  0  0  0  0  0  0  0  0  0  0  0
    9.4979    2.8027   -4.6163 H   0  0  0  0  0  0  0  0  0  0  0  0
    9.8170    1.9179   -3.1150 H   0  0  0  0  0  0  0  0  0  0  0  0
   -2.1154    1.6936   -0.2257 H   0  0  0  0  0  0  0  0  0  0  0  0
  1  7  1  0  0  0  0
  2  8  1  0  0  0  0
  2  1  2  0  0  0  0
  3  2  1  0  0  0  0
  4  3  2  0  0  0  0
  4  5  1  0  0  0  0
  5  6  2  0  0  0  0
  6  1  1  0  0  0  0
  6 31  1  0  0  0  0
  9  4  1  0  0  0  0
 10  5  1  0  0  0  0
 11  3  1  0  0  0  0
 12 11  2  0  0  0  0
 13 14  2  0  0  0  0
 13 18  1  0  0  0  0
 14 15  1  0  0  0  0
 15 27  1  0  0  0  0
 15 16  2  0  0  0  0
 16 21  1  0  0  0  0
 17 16  1  0  0  0  0
 17 22  1  0  0  0  0
 18 17  2  0  0  0  0
 19 13  1  0  0  0  0
 20 14  1  0  0  0  0
 23 18  1  0  0  0  0
 23 24  2  0  0  0  0
 23 26  1  0  0  0  0
 25 23  2  0  0  0  0
 27 30  1  0  0  0  0
 28 27  1  0  0  0  0
 29 27  1  0  0  0  0
M  RAD  2  12   2  26   2
M  END
