Coordinates from ORCA-job Ph-N2-X-OTs-B3LYPG-6-31G_dp-scan-d09-49-n400
 OpenBabel08281821093D

 31 31  0  0  0  0  0  0  0  0999 V2000
   -0.1150    0.2840   -1.3735 C   0  0  0  0  0  0  0  0  0  0  0  0
    0.7275    0.9581   -2.2546 C   0  0  0  0  0  0  0  0  0  0  0  0
    0.2528    2.1648   -2.7917 C   0  0  0  0  0  0  0  0  0  0  0  0
   -1.0093    2.6959   -2.4894 C   0  0  0  0  0  0  0  0  0  0  0  0
   -1.8186    2.0057   -1.5957 C   0  0  0  0  0  0  0  0  0  0  0  0
   -1.3705    0.8014   -1.0414 C   0  0  0  0  0  0  0  0  0  0  0  0
    0.2185   -0.6562   -0.9476 H   0  0  0  0  0  0  0  0  0  0  0  0
    1.6999    0.5577   -2.5298 H   0  0  0  0  0  0  0  0  0  0  0  0
   -1.3265    3.6274   -2.9445 H   0  0  0  0  0  0  0  0  0  0  0  0
   -2.7957    2.3988   -1.3373 H   0  0  0  0  0  0  0  0  0  0  0  0
    1.0364    2.8902   -3.6996 N   0  0  0  0  0  0  0  0  0  0  0  0
    2.0263    3.1287   -4.2161 N   0  0  0  0  0  0  0  0  0  0  0  0
    6.2792    1.3764   -5.3263 C   0  0  0  0  0  0  0  0  0  0  0  0
    7.6728    1.3810   -5.3607 C   0  0  0  0  0  0  0  0  0  0  0  0
    8.4256    0.7882   -4.3373 C   0  0  0  0  0  0  0  0  0  0  0  0
    7.7426    0.1858   -3.2709 C   0  0  0  0  0  0  0  0  0  0  0  0
    6.3500    0.1721   -3.2228 C   0  0  0  0  0  0  0  0  0  0  0  0
    5.6244    0.7722   -4.2528 C   0  0  0  0  0  0  0  0  0  0  0  0
    5.6965    1.8216   -6.1253 H   0  0  0  0  0  0  0  0  0  0  0  0
    8.1847    1.8484   -6.1985 H   0  0  0  0  0  0  0  0  0  0  0  0
    8.3094   -0.2812   -2.4692 H   0  0  0  0  0  0  0  0  0  0  0  0
    5.8225   -0.3070   -2.4052 H   0  0  0  0  0  0  0  0  0  0  0  0
    3.8327    0.7960   -4.1833 S   0  0  0  0  0  0  0  0  0  0  0  0
    3.4121   -0.4097   -3.4308 O   0  0  0  0  0  0  0  0  0  0  0  0
    3.3266    0.9387   -5.5619 O   0  0  0  0  0  0  0  0  0  0  0  0
    3.5090    2.0550   -3.3428 O   0  0  0  0  0  0  0  0  0  0  0  0
    9.9347    0.7680   -4.3986 C   0  0  0  0  0  0  0  0  0  0  0  0
   10.2976   -0.1397   -4.8977 H   0  0  0  0  0  0  0  0  0  0  0  0
   10.3250    1.6235   -4.9579 H   0  0  0  0  0  0  0  0  0  0  0  0
   10.3776    0.7855   -3.3984 H   0  0  0  0  0  0  0  0  0  0  0  0
   -2.0092    0.2593   -0.3504 H   0  0  0  0  0  0  0  0  0  0  0  0
  1  6  1  0  0  0  0
  1  7  1  0  0  0  0
  2  1  2  0  0  0  0
  3  4  2  0  0  0  0
  3  2  1  0  0  0  0
  4  5  1  0  0  0  0
  5 10  1  0  0  0  0
  5  6  2  0  0  0  0
  6 31  1  0  0  0  0
  8  2  1  0  0  0  0
  9  4  1  0  0  0  0
 11  3  1  0  0  0  0
 12 11  2  0  0  0  0
 13 18  1  0  0  0  0
 14 13  2  0  0  0  0
 14 15  1  0  0  0  0
 15 16  2  0  0  0  0
 16 17  1  0  0  0  0
 16 21  1  0  0  0  0
 17 22  1  0  0  0  0
 18 23  1  0  0  0  0
 18 17  2  0  0  0  0
 19 13  1  0  0  0  0
 20 14  1  0  0  0  0
 23 24  2  0  0  0  0
 23 26  1  0  0  0  0
 25 23  2  0  0  0  0
 27 15  1  0  0  0  0
 27 30  1  0  0  0  0
 28 27  1  0  0  0  0
 29 27  1  0  0  0  0
M  RAD  2  12   2  26   2
M  END
