Coordinates from ORCA-job Ph-N2-X-OTs-B3LYPG-6-31G_dp-scan-d09-49-n400
 OpenBabel08281821093D

 31 31  0  0  0  0  0  0  0  0999 V2000
    0.4137   -0.0774   -2.0531 C   0  0  0  0  0  0  0  0  0  0  0  0
    0.9657    0.9701   -2.8097 C   0  0  0  0  0  0  0  0  0  0  0  0
    0.2610    2.1778   -2.6734 C   0  0  0  0  0  0  0  0  0  0  0  0
   -0.8908    2.4097   -1.8879 C   0  0  0  0  0  0  0  0  0  0  0  0
   -1.3764    1.3326   -1.1716 C   0  0  0  0  0  0  0  0  0  0  0  0
   -0.7203    0.0894   -1.2587 C   0  0  0  0  0  0  0  0  0  0  0  0
    0.8916   -1.0529   -2.0952 H   0  0  0  0  0  0  0  0  0  0  0  0
    2.0230    0.8220   -3.5638 H   0  0  0  0  0  0  0  0  0  0  0  0
   -1.3621    3.3865   -1.8529 H   0  0  0  0  0  0  0  0  0  0  0  0
   -2.2586    1.4469   -0.5510 H   0  0  0  0  0  0  0  0  0  0  0  0
    0.7474    3.2579   -3.3990 N   0  0  0  0  0  0  0  0  0  0  0  0
    1.2250    4.0659   -4.0017 N   0  0  0  0  0  0  0  0  0  0  0  0
    6.2273    0.6735   -5.4888 C   0  0  0  0  0  0  0  0  0  0  0  0
    7.5487    0.2968   -5.2522 C   0  0  0  0  0  0  0  0  0  0  0  0
    8.1735    0.5726   -4.0286 C   0  0  0  0  0  0  0  0  0  0  0  0
    7.4393    1.2500   -3.0439 C   0  0  0  0  0  0  0  0  0  0  0  0
    6.1176    1.6311   -3.2654 C   0  0  0  0  0  0  0  0  0  0  0  0
    5.5153    1.3357   -4.4890 C   0  0  0  0  0  0  0  0  0  0  0  0
    5.7508    0.4774   -6.4432 H   0  0  0  0  0  0  0  0  0  0  0  0
    8.1067   -0.2124   -6.0341 H   0  0  0  0  0  0  0  0  0  0  0  0
    7.9121    1.4893   -2.0943 H   0  0  0  0  0  0  0  0  0  0  0  0
    5.5577    2.1729   -2.5108 H   0  0  0  0  0  0  0  0  0  0  0  0
    3.8055    1.7914   -4.7816 S   0  0  0  0  0  0  0  0  0  0  0  0
    3.0031    0.5879   -4.2530 O   0  0  0  0  0  0  0  0  0  0  0  0
    3.6394    1.9710   -6.2311 O   0  0  0  0  0  0  0  0  0  0  0  0
    3.5268    2.9791   -3.9255 O   0  0  0  0  0  0  0  0  0  0  0  0
    9.5971    0.1393   -3.7685 C   0  0  0  0  0  0  0  0  0  0  0  0
    9.6270   -0.8206   -3.2373 H   0  0  0  0  0  0  0  0  0  0  0  0
   10.1539    0.0131   -4.7013 H   0  0  0  0  0  0  0  0  0  0  0  0
   10.1311    0.8675   -3.1499 H   0  0  0  0  0  0  0  0  0  0  0  0
   -1.1128   -0.7530   -0.6955 H   0  0  0  0  0  0  0  0  0  0  0  0
  1  6  2  0  0  0  0
  2  3  2  0  0  0  0
  2  1  1  0  0  0  0
  3  4  1  0  0  0  0
  4  9  1  0  0  0  0
  4  5  2  0  0  0  0
  5 10  1  0  0  0  0
  6  5  1  0  0  0  0
  6 31  1  0  0  0  0
  7  1  1  0  0  0  0
 11  3  1  0  0  0  0
 12 11  1  0  0  0  0
 13 14  2  0  0  0  0
 13 18  1  0  0  0  0
 14 15  1  0  0  0  0
 15 27  1  0  0  0  0
 15 16  2  0  0  0  0
 16 21  1  0  0  0  0
 17 16  1  0  0  0  0
 17 22  1  0  0  0  0
 18 17  2  0  0  0  0
 19 13  1  0  0  0  0
 20 14  1  0  0  0  0
 23 18  1  0  0  0  0
 23 24  1  0  0  0  0
 23 26  2  0  0  0  0
 24  8  1  0  0  0  0
 25 23  2  0  0  0  0
 27 28  1  0  0  0  0
 27 30  1  0  0  0  0
 29 27  1  0  0  0  0
M  RAD  3   2   2  11   2  12   3
M  END
