Coordinates from ORCA-job Ph-N2-X-OTs-B3LYPG-6-31G_dp-scan-d09-49-n400
 OpenBabel08281821093D

 31 31  0  0  0  0  0  0  0  0999 V2000
   -0.2536    0.9567   -0.9047 C   0  0  0  0  0  0  0  0  0  0  0  0
    0.7748    0.9892   -1.8425 C   0  0  0  0  0  0  0  0  0  0  0  0
    0.7043    1.9501   -2.8643 C   0  0  0  0  0  0  0  0  0  0  0  0
   -0.3548    2.8651   -2.9494 C   0  0  0  0  0  0  0  0  0  0  0  0
   -1.3749    2.8077   -2.0063 C   0  0  0  0  0  0  0  0  0  0  0  0
   -1.3227    1.8542   -0.9854 C   0  0  0  0  0  0  0  0  0  0  0  0
   -0.2192    0.2217   -0.1066 H   0  0  0  0  0  0  0  0  0  0  0  0
    1.6101    0.3052   -1.8014 H   0  0  0  0  0  0  0  0  0  0  0  0
   -0.3624    3.5945   -3.7522 H   0  0  0  0  0  0  0  0  0  0  0  0
   -2.2054    3.5040   -2.0646 H   0  0  0  0  0  0  0  0  0  0  0  0
    1.6910    2.0746   -3.8568 N   0  0  0  0  0  0  0  0  0  0  0  0
    2.6392    1.5715   -4.3076 N   0  0  0  0  0  0  0  0  0  0  0  0
    5.9159    0.8770   -5.3409 C   0  0  0  0  0  0  0  0  0  0  0  0
    7.1470    1.5305   -5.2854 C   0  0  0  0  0  0  0  0  0  0  0  0
    8.0502    1.2883   -4.2417 C   0  0  0  0  0  0  0  0  0  0  0  0
    7.6882    0.3680   -3.2458 C   0  0  0  0  0  0  0  0  0  0  0  0
    6.4633   -0.2932   -3.2870 C   0  0  0  0  0  0  0  0  0  0  0  0
    5.5791   -0.0292   -4.3356 C   0  0  0  0  0  0  0  0  0  0  0  0
    5.2232    1.0514   -6.1568 H   0  0  0  0  0  0  0  0  0  0  0  0
    7.4136    2.2350   -6.0692 H   0  0  0  0  0  0  0  0  0  0  0  0
    8.3791    0.1634   -2.4315 H   0  0  0  0  0  0  0  0  0  0  0  0
    6.1934   -1.0189   -2.5274 H   0  0  0  0  0  0  0  0  0  0  0  0
    3.9931   -0.8647   -4.3846 S   0  0  0  0  0  0  0  0  0  0  0  0
    4.1610   -2.1702   -3.7381 O   0  0  0  0  0  0  0  0  0  0  0  0
    3.4921   -0.7847   -5.7601 O   0  0  0  0  0  0  0  0  0  0  0  0
    3.0746    0.0157   -3.4249 O   0  0  0  0  0  0  0  0  0  0  0  0
    9.3960    1.9733   -4.2044 C   0  0  0  0  0  0  0  0  0  0  0  0
   10.1770    1.3295   -4.6280 H   0  0  0  0  0  0  0  0  0  0  0  0
    9.3892    2.9017   -4.7821 H   0  0  0  0  0  0  0  0  0  0  0  0
    9.6954    2.2119   -3.1794 H   0  0  0  0  0  0  0  0  0  0  0  0
   -2.1183    1.8114   -0.2471 H   0  0  0  0  0  0  0  0  0  0  0  0
  1  7  1  0  0  0  0
  2  8  1  0  0  0  0
  2  1  2  0  0  0  0
  3  2  1  0  0  0  0
  4  3  2  0  0  0  0
  4  5  1  0  0  0  0
  5  6  2  0  0  0  0
  6  1  1  0  0  0  0
  6 31  1  0  0  0  0
  9  4  1  0  0  0  0
 10  5  1  0  0  0  0
 11  3  1  0  0  0  0
 12 11  2  0  0  0  0
 13 14  2  0  0  0  0
 13 18  1  0  0  0  0
 14 15  1  0  0  0  0
 15 27  1  0  0  0  0
 15 16  2  0  0  0  0
 16 21  1  0  0  0  0
 17 16  1  0  0  0  0
 17 22  1  0  0  0  0
 18 17  2  0  0  0  0
 19 13  1  0  0  0  0
 20 14  1  0  0  0  0
 23 18  1  0  0  0  0
 23 24  2  0  0  0  0
 23 26  1  0  0  0  0
 25 23  2  0  0  0  0
 27 30  1  0  0  0  0
 28 27  1  0  0  0  0
 29 27  1  0  0  0  0
M  RAD  2  12   2  26   2
M  END
