Coordinates from ORCA-job Ph-N2-X-OTs-B3LYPG-6-31G_dp-scan-d09-49-n400
 OpenBabel08281821093D

 31 31  0  0  0  0  0  0  0  0999 V2000
    0.2808    0.1562   -1.5012 C   0  0  0  0  0  0  0  0  0  0  0  0
    0.8791    0.9238   -2.5025 C   0  0  0  0  0  0  0  0  0  0  0  0
    0.2131    2.1150   -2.8306 C   0  0  0  0  0  0  0  0  0  0  0  0
   -0.9844    2.5537   -2.2409 C   0  0  0  0  0  0  0  0  0  0  0  0
   -1.5350    1.7614   -1.2450 C   0  0  0  0  0  0  0  0  0  0  0  0
   -0.9009    0.5649   -0.8790 C   0  0  0  0  0  0  0  0  0  0  0  0
    0.7510   -0.7777   -1.2100 H   0  0  0  0  0  0  0  0  0  0  0  0
    1.8259    0.6087   -3.0391 H   0  0  0  0  0  0  0  0  0  0  0  0
   -1.4444    3.4840   -2.5547 H   0  0  0  0  0  0  0  0  0  0  0  0
   -2.4545    2.0670   -0.7581 H   0  0  0  0  0  0  0  0  0  0  0  0
    0.7677    2.9190   -3.8270 N   0  0  0  0  0  0  0  0  0  0  0  0
    1.5050    3.3800   -4.5456 N   0  0  0  0  0  0  0  0  0  0  0  0
    6.3698    1.2751   -5.5300 C   0  0  0  0  0  0  0  0  0  0  0  0
    7.7473    1.1198   -5.3730 C   0  0  0  0  0  0  0  0  0  0  0  0
    8.2953    0.6977   -4.1550 C   0  0  0  0  0  0  0  0  0  0  0  0
    7.4226    0.4315   -3.0883 C   0  0  0  0  0  0  0  0  0  0  0  0
    6.0458    0.5819   -3.2302 C   0  0  0  0  0  0  0  0  0  0  0  0
    5.5247    1.0065   -4.4544 C   0  0  0  0  0  0  0  0  0  0  0  0
    5.9425    1.5904   -6.4755 H   0  0  0  0  0  0  0  0  0  0  0  0
    8.4069    1.3280   -6.2118 H   0  0  0  0  0  0  0  0  0  0  0  0
    7.8292    0.0990   -2.1361 H   0  0  0  0  0  0  0  0  0  0  0  0
    5.3736    0.3604   -2.4085 H   0  0  0  0  0  0  0  0  0  0  0  0
    3.7577    1.2519   -4.6439 S   0  0  0  0  0  0  0  0  0  0  0  0
    3.1031    0.1742   -3.8257 O   0  0  0  0  0  0  0  0  0  0  0  0
    3.4500    1.2169   -6.0840 O   0  0  0  0  0  0  0  0  0  0  0  0
    3.4920    2.6060   -4.0035 O   0  0  0  0  0  0  0  0  0  0  0  0
    9.7848    0.5049   -3.9964 C   0  0  0  0  0  0  0  0  0  0  0  0
   10.0549   -0.5568   -4.0549 H   0  0  0  0  0  0  0  0  0  0  0  0
   10.3423    1.0287   -4.7778 H   0  0  0  0  0  0  0  0  0  0  0  0
   10.1352    0.8726   -3.0264 H   0  0  0  0  0  0  0  0  0  0  0  0
   -1.3417   -0.0538   -0.1026 H   0  0  0  0  0  0  0  0  0  0  0  0
  1  7  1  0  0  0  0
  1  6  2  0  0  0  0
  2  1  1  0  0  0  0
  3  2  2  0  0  0  0
  3  4  1  0  0  0  0
  4  5  2  0  0  0  0
  5  6  1  0  0  0  0
  5 10  1  0  0  0  0
  6 31  1  0  0  0  0
  8  2  1  0  0  0  0
  9  4  1  0  0  0  0
 11  3  1  0  0  0  0
 12 11  1  0  0  0  0
 13 14  2  0  0  0  0
 13 18  1  0  0  0  0
 14 15  1  0  0  0  0
 15 27  1  0  0  0  0
 15 16  2  0  0  0  0
 16 21  1  0  0  0  0
 17 16  1  0  0  0  0
 17 22  1  0  0  0  0
 18 17  2  0  0  0  0
 19 13  1  0  0  0  0
 20 14  1  0  0  0  0
 23 18  1  0  0  0  0
 23 26  2  0  0  0  0
 23 24  1  0  0  0  0
 25 23  2  0  0  0  0
 27 30  1  0  0  0  0
 28 27  1  0  0  0  0
 29 27  1  0  0  0  0
M  RAD  3  11   2  12   3  24   2
M  END
