Coordinates from ORCA-job Ph-N2-X-OTs-B3LYPG-6-31G_dp-scan-d09-49-n400
 OpenBabel08281821093D

 31 31  0  0  0  0  0  0  0  0999 V2000
   -0.5990    0.5899   -1.2650 C   0  0  0  0  0  0  0  0  0  0  0  0
    0.6122    1.0028   -1.8120 C   0  0  0  0  0  0  0  0  0  0  0  0
    0.6020    2.1485   -2.6247 C   0  0  0  0  0  0  0  0  0  0  0  0
   -0.5662    2.8766   -2.8877 C   0  0  0  0  0  0  0  0  0  0  0  0
   -1.7628    2.4401   -2.3306 C   0  0  0  0  0  0  0  0  0  0  0  0
   -1.7769    1.2991   -1.5220 C   0  0  0  0  0  0  0  0  0  0  0  0
   -0.6219   -0.2954   -0.6379 H   0  0  0  0  0  0  0  0  0  0  0  0
    1.5450    0.4799   -1.6422 H   0  0  0  0  0  0  0  0  0  0  0  0
   -0.5190    3.7561   -3.5202 H   0  0  0  0  0  0  0  0  0  0  0  0
   -2.6802    2.9849   -2.5260 H   0  0  0  0  0  0  0  0  0  0  0  0
    1.7789    2.6242   -3.2214 N   0  0  0  0  0  0  0  0  0  0  0  0
    2.8993    2.4472   -3.4237 N   0  0  0  0  0  0  0  0  0  0  0  0
    5.9364    1.1063   -5.0932 C   0  0  0  0  0  0  0  0  0  0  0  0
    7.2527    1.4922   -5.3467 C   0  0  0  0  0  0  0  0  0  0  0  0
    8.3032    1.0710   -4.5210 C   0  0  0  0  0  0  0  0  0  0  0  0
    8.0013    0.2470   -3.4259 C   0  0  0  0  0  0  0  0  0  0  0  0
    6.6924   -0.1477   -3.1605 C   0  0  0  0  0  0  0  0  0  0  0  0
    5.6628    0.2900   -3.9963 C   0  0  0  0  0  0  0  0  0  0  0  0
    5.1255    1.4189   -5.7414 H   0  0  0  0  0  0  0  0  0  0  0  0
    7.4684    2.1256   -6.2037 H   0  0  0  0  0  0  0  0  0  0  0  0
    8.8037   -0.0935   -2.7761 H   0  0  0  0  0  0  0  0  0  0  0  0
    6.4641   -0.7989   -2.3234 H   0  0  0  0  0  0  0  0  0  0  0  0
    3.9717   -0.1928   -3.6439 S   0  0  0  0  0  0  0  0  0  0  0  0
    4.0122   -1.5311   -3.0403 O   0  0  0  0  0  0  0  0  0  0  0  0
    3.1888    0.0192   -4.8736 O   0  0  0  0  0  0  0  0  0  0  0  0
    3.5018    0.8214   -2.5404 O   0  0  0  0  0  0  0  0  0  0  0  0
    9.7306    1.4641   -4.8198 C   0  0  0  0  0  0  0  0  0  0  0  0
   10.2460    0.6783   -5.3869 H   0  0  0  0  0  0  0  0  0  0  0  0
    9.7770    2.3803   -5.4157 H   0  0  0  0  0  0  0  0  0  0  0  0
   10.3020    1.6264   -3.9007 H   0  0  0  0  0  0  0  0  0  0  0  0
   -2.7129    0.9602   -1.0888 H   0  0  0  0  0  0  0  0  0  0  0  0
  1  7  1  0  0  0  0
  2  8  1  0  0  0  0
  2  1  2  0  0  0  0
  3  2  1  0  0  0  0
  4  3  2  0  0  0  0
  4  5  1  0  0  0  0
  5  6  2  0  0  0  0
  6  1  1  0  0  0  0
  6 31  1  0  0  0  0
  9  4  1  0  0  0  0
 10  5  1  0  0  0  0
 11  3  1  0  0  0  0
 12 11  2  0  0  0  0
 13 18  1  0  0  0  0
 14 13  2  0  0  0  0
 14 15  1  0  0  0  0
 15 16  2  0  0  0  0
 16 17  1  0  0  0  0
 16 21  1  0  0  0  0
 17 22  1  0  0  0  0
 18 23  1  0  0  0  0
 18 17  2  0  0  0  0
 19 13  1  0  0  0  0
 20 14  1  0  0  0  0
 23 24  2  0  0  0  0
 23 26  1  0  0  0  0
 25 23  2  0  0  0  0
 27 15  1  0  0  0  0
 27 30  1  0  0  0  0
 28 27  1  0  0  0  0
 29 27  1  0  0  0  0
M  RAD  2  12   2  26   2
M  END
