Coordinates from ORCA-job Ph-N2-X-OTs-B3LYPG-6-31G_dp-scan-d09-49-n400
 OpenBabel08281821093D

 31 31  0  0  0  0  0  0  0  0999 V2000
   -0.5600    0.7128   -1.1350 C   0  0  0  0  0  0  0  0  0  0  0  0
    0.6054    0.9667   -1.8528 C   0  0  0  0  0  0  0  0  0  0  0  0
    0.6101    2.0704   -2.7221 C   0  0  0  0  0  0  0  0  0  0  0  0
   -0.5034    2.9084   -2.8747 C   0  0  0  0  0  0  0  0  0  0  0  0
   -1.6553    2.6321   -2.1469 C   0  0  0  0  0  0  0  0  0  0  0  0
   -1.6817    1.5356   -1.2796 C   0  0  0  0  0  0  0  0  0  0  0  0
   -0.5913   -0.1366   -0.4601 H   0  0  0  0  0  0  0  0  0  0  0  0
    1.4906    0.3494   -1.7700 H   0  0  0  0  0  0  0  0  0  0  0  0
   -0.4491    3.7491   -3.5578 H   0  0  0  0  0  0  0  0  0  0  0  0
   -2.5289    3.2664   -2.2556 H   0  0  0  0  0  0  0  0  0  0  0  0
    1.7351    2.3984   -3.4956 N   0  0  0  0  0  0  0  0  0  0  0  0
    2.8037    2.0786   -3.8054 N   0  0  0  0  0  0  0  0  0  0  0  0
    5.9499    0.9968   -5.1972 C   0  0  0  0  0  0  0  0  0  0  0  0
    7.2430    1.5008   -5.3355 C   0  0  0  0  0  0  0  0  0  0  0  0
    8.2534    1.1651   -4.4246 C   0  0  0  0  0  0  0  0  0  0  0  0
    7.9347    0.3054   -3.3622 C   0  0  0  0  0  0  0  0  0  0  0  0
    6.6482   -0.2061   -3.2103 C   0  0  0  0  0  0  0  0  0  0  0  0
    5.6585    0.1480   -4.1297 C   0  0  0  0  0  0  0  0  0  0  0  0
    5.1725    1.2435   -5.9118 H   0  0  0  0  0  0  0  0  0  0  0  0
    7.4731    2.1607   -6.1685 H   0  0  0  0  0  0  0  0  0  0  0  0
    8.7068    0.0293   -2.6482 H   0  0  0  0  0  0  0  0  0  0  0  0
    6.4082   -0.8844   -2.3986 H   0  0  0  0  0  0  0  0  0  0  0  0
    3.9945   -0.4888   -3.9267 S   0  0  0  0  0  0  0  0  0  0  0  0
    4.0985   -1.7980   -3.2717 O   0  0  0  0  0  0  0  0  0  0  0  0
    3.3174   -0.3757   -5.2262 O   0  0  0  0  0  0  0  0  0  0  0  0
    3.3285    0.5024   -2.8918 O   0  0  0  0  0  0  0  0  0  0  0  0
    9.6602    1.6865   -4.5989 C   0  0  0  0  0  0  0  0  0  0  0  0
   10.2887    0.9567   -5.1251 H   0  0  0  0  0  0  0  0  0  0  0  0
    9.6749    2.6112   -5.1830 H   0  0  0  0  0  0  0  0  0  0  0  0
   10.1356    1.8857   -3.6337 H   0  0  0  0  0  0  0  0  0  0  0  0
   -2.5826    1.3207   -0.7126 H   0  0  0  0  0  0  0  0  0  0  0  0
  1  7  1  0  0  0  0
  2  8  1  0  0  0  0
  2  1  2  0  0  0  0
  3  2  1  0  0  0  0
  4  3  2  0  0  0  0
  4  5  1  0  0  0  0
  5  6  2  0  0  0  0
  6  1  1  0  0  0  0
  6 31  1  0  0  0  0
  9  4  1  0  0  0  0
 10  5  1  0  0  0  0
 11  3  1  0  0  0  0
 12 11  2  0  0  0  0
 13 18  1  0  0  0  0
 14 13  2  0  0  0  0
 14 15  1  0  0  0  0
 15 16  2  0  0  0  0
 16 17  1  0  0  0  0
 16 21  1  0  0  0  0
 17 22  1  0  0  0  0
 18 23  1  0  0  0  0
 18 17  2  0  0  0  0
 19 13  1  0  0  0  0
 20 14  1  0  0  0  0
 23 24  2  0  0  0  0
 23 26  1  0  0  0  0
 25 23  2  0  0  0  0
 27 15  1  0  0  0  0
 27 30  1  0  0  0  0
 28 27  1  0  0  0  0
 29 27  1  0  0  0  0
M  RAD  2  12   2  26   2
M  END
