Coordinates from ORCA-job Ph-N2-X-OTs-B3LYPG-6-31G_dp-scan-d09-49-n400
 OpenBabel08281821093D

 31 31  0  0  0  0  0  0  0  0999 V2000
    0.2105    0.1707   -1.4766 C   0  0  0  0  0  0  0  0  0  0  0  0
    0.8418    0.9185   -2.4710 C   0  0  0  0  0  0  0  0  0  0  0  0
    0.2175    2.1256   -2.8225 C   0  0  0  0  0  0  0  0  0  0  0  0
   -0.9782    2.5936   -2.2546 C   0  0  0  0  0  0  0  0  0  0  0  0
   -1.5657    1.8232   -1.2614 C   0  0  0  0  0  0  0  0  0  0  0  0
   -0.9704    0.6141   -0.8761 C   0  0  0  0  0  0  0  0  0  0  0  0
    0.6528   -0.7729   -1.1743 H   0  0  0  0  0  0  0  0  0  0  0  0
    1.7716    0.5743   -2.9785 H   0  0  0  0  0  0  0  0  0  0  0  0
   -1.4100    3.5324   -2.5827 H   0  0  0  0  0  0  0  0  0  0  0  0
   -2.4851    2.1563   -0.7928 H   0  0  0  0  0  0  0  0  0  0  0  0
    0.8029    2.9129   -3.8169 N   0  0  0  0  0  0  0  0  0  0  0  0
    1.6003    3.3247   -4.5061 N   0  0  0  0  0  0  0  0  0  0  0  0
    6.3608    1.3155   -5.5065 C   0  0  0  0  0  0  0  0  0  0  0  0
    7.7436    1.1830   -5.3762 C   0  0  0  0  0  0  0  0  0  0  0  0
    8.3178    0.7065   -4.1908 C   0  0  0  0  0  0  0  0  0  0  0  0
    7.4665    0.3607   -3.1295 C   0  0  0  0  0  0  0  0  0  0  0  0
    6.0849    0.4866   -3.2451 C   0  0  0  0  0  0  0  0  0  0  0  0
    5.5375    0.9675   -4.4368 C   0  0  0  0  0  0  0  0  0  0  0  0
    5.9135    1.6725   -6.4276 H   0  0  0  0  0  0  0  0  0  0  0  0
    8.3864    1.4517   -6.2107 H   0  0  0  0  0  0  0  0  0  0  0  0
    7.8937   -0.0150   -2.2027 H   0  0  0  0  0  0  0  0  0  0  0  0
    5.4289    0.2035   -2.4293 H   0  0  0  0  0  0  0  0  0  0  0  0
    3.7625    1.1768   -4.5887 S   0  0  0  0  0  0  0  0  0  0  0  0
    3.1404    0.0602   -3.8098 O   0  0  0  0  0  0  0  0  0  0  0  0
    3.4325    1.2141   -6.0241 O   0  0  0  0  0  0  0  0  0  0  0  0
    3.4852    2.5045   -3.8839 O   0  0  0  0  0  0  0  0  0  0  0  0
    9.8134    0.5413   -4.0606 C   0  0  0  0  0  0  0  0  0  0  0  0
   10.1030   -0.5141   -4.1349 H   0  0  0  0  0  0  0  0  0  0  0  0
   10.3468    1.0846   -4.8453 H   0  0  0  0  0  0  0  0  0  0  0  0
   10.1735    0.9054   -3.0926 H   0  0  0  0  0  0  0  0  0  0  0  0
   -1.4395    0.0121   -0.1035 H   0  0  0  0  0  0  0  0  0  0  0  0
  1  7  1  0  0  0  0
  1  6  2  0  0  0  0
  2  1  1  0  0  0  0
  3  2  2  0  0  0  0
  3  4  1  0  0  0  0
  4  5  2  0  0  0  0
  5  6  1  0  0  0  0
  5 10  1  0  0  0  0
  6 31  1  0  0  0  0
  8  2  1  0  0  0  0
  9  4  1  0  0  0  0
 11  3  1  0  0  0  0
 12 11  1  0  0  0  0
 13 14  2  0  0  0  0
 13 18  1  0  0  0  0
 14 15  1  0  0  0  0
 15 27  1  0  0  0  0
 15 16  2  0  0  0  0
 16 21  1  0  0  0  0
 17 16  1  0  0  0  0
 17 22  1  0  0  0  0
 18 17  2  0  0  0  0
 19 13  1  0  0  0  0
 20 14  1  0  0  0  0
 23 18  1  0  0  0  0
 23 26  2  0  0  0  0
 23 24  1  0  0  0  0
 25 23  2  0  0  0  0
 27 30  1  0  0  0  0
 28 27  1  0  0  0  0
 29 27  1  0  0  0  0
M  RAD  3  11   2  12   3  24   2
M  END
