Coordinates from ORCA-job Ph-N2-X-OTs-B3LYPG-6-31G_dp-scan-d09-49-n400
 OpenBabel08281821093D

 31 31  0  0  0  0  0  0  0  0999 V2000
   -0.1466    1.1088   -0.7940 C   0  0  0  0  0  0  0  0  0  0  0  0
    0.8729    1.1666   -1.7404 C   0  0  0  0  0  0  0  0  0  0  0  0
    0.6777    1.9761   -2.8703 C   0  0  0  0  0  0  0  0  0  0  0  0
   -0.4921    2.7267   -3.0522 C   0  0  0  0  0  0  0  0  0  0  0  0
   -1.5038    2.6395   -2.1021 C   0  0  0  0  0  0  0  0  0  0  0  0
   -1.3296    1.8321   -0.9743 C   0  0  0  0  0  0  0  0  0  0  0  0
   -0.0160    0.4904    0.0883 H   0  0  0  0  0  0  0  0  0  0  0  0
    1.7948    0.6167   -1.6203 H   0  0  0  0  0  0  0  0  0  0  0  0
   -0.5917    3.3501   -3.9341 H   0  0  0  0  0  0  0  0  0  0  0  0
   -2.4213    3.2029   -2.2363 H   0  0  0  0  0  0  0  0  0  0  0  0
    1.6548    2.1187   -3.8711 N   0  0  0  0  0  0  0  0  0  0  0  0
    2.6163    1.6355   -4.3142 N   0  0  0  0  0  0  0  0  0  0  0  0
    5.9076    0.9674   -5.2941 C   0  0  0  0  0  0  0  0  0  0  0  0
    7.1555    1.5865   -5.2244 C   0  0  0  0  0  0  0  0  0  0  0  0
    8.0805    1.2438   -4.2290 C   0  0  0  0  0  0  0  0  0  0  0  0
    7.7229    0.2575   -3.2971 C   0  0  0  0  0  0  0  0  0  0  0  0
    6.4804   -0.3694   -3.3521 C   0  0  0  0  0  0  0  0  0  0  0  0
    5.5751   -0.0050   -4.3510 C   0  0  0  0  0  0  0  0  0  0  0  0
    5.1986    1.2195   -6.0749 H   0  0  0  0  0  0  0  0  0  0  0  0
    7.4178    2.3438   -5.9589 H   0  0  0  0  0  0  0  0  0  0  0  0
    8.4309   -0.0258   -2.5220 H   0  0  0  0  0  0  0  0  0  0  0  0
    6.2124   -1.1453   -2.6432 H   0  0  0  0  0  0  0  0  0  0  0  0
    3.9652   -0.7930   -4.4146 S   0  0  0  0  0  0  0  0  0  0  0  0
    4.1008   -2.1229   -3.8117 O   0  0  0  0  0  0  0  0  0  0  0  0
    3.4591   -0.6576   -5.7842 O   0  0  0  0  0  0  0  0  0  0  0  0
    3.0766    0.0868   -3.4263 O   0  0  0  0  0  0  0  0  0  0  0  0
    9.4431    1.8937   -4.1779 C   0  0  0  0  0  0  0  0  0  0  0  0
   10.2001    1.2590   -4.6549 H   0  0  0  0  0  0  0  0  0  0  0  0
    9.4476    2.8551   -4.6987 H   0  0  0  0  0  0  0  0  0  0  0  0
    9.7674    2.0632   -3.1466 H   0  0  0  0  0  0  0  0  0  0  0  0
   -2.1175    1.7695   -0.2294 H   0  0  0  0  0  0  0  0  0  0  0  0
  1  7  1  0  0  0  0
  2  8  1  0  0  0  0
  2  1  2  0  0  0  0
  3  2  1  0  0  0  0
  4  3  2  0  0  0  0
  4  5  1  0  0  0  0
  5  6  2  0  0  0  0
  6  1  1  0  0  0  0
  6 31  1  0  0  0  0
  9  4  1  0  0  0  0
 10  5  1  0  0  0  0
 11  3  1  0  0  0  0
 12 11  2  0  0  0  0
 13 14  2  0  0  0  0
 13 18  1  0  0  0  0
 14 15  1  0  0  0  0
 15 27  1  0  0  0  0
 15 16  2  0  0  0  0
 16 21  1  0  0  0  0
 17 16  1  0  0  0  0
 17 22  1  0  0  0  0
 18 17  2  0  0  0  0
 19 13  1  0  0  0  0
 20 14  1  0  0  0  0
 23 18  1  0  0  0  0
 23 24  2  0  0  0  0
 23 26  1  0  0  0  0
 25 23  2  0  0  0  0
 27 30  1  0  0  0  0
 28 27  1  0  0  0  0
 29 27  1  0  0  0  0
M  RAD  2  12   2  26   2
M  END
