Coordinates from ORCA-job Ph-N2-X-OTs-B3LYPG-6-31G_dp-scan-d09-49-n400
 OpenBabel08281821093D

 31 31  0  0  0  0  0  0  0  0999 V2000
   -0.0687    0.2680   -1.3858 C   0  0  0  0  0  0  0  0  0  0  0  0
    0.7400    0.9481   -2.2940 C   0  0  0  0  0  0  0  0  0  0  0  0
    0.2404    2.1554   -2.8071 C   0  0  0  0  0  0  0  0  0  0  0  0
   -1.0124    2.6807   -2.4588 C   0  0  0  0  0  0  0  0  0  0  0  0
   -1.7861    1.9837   -1.5395 C   0  0  0  0  0  0  0  0  0  0  0  0
   -1.3133    0.7789   -1.0066 C   0  0  0  0  0  0  0  0  0  0  0  0
    0.2831   -0.6728   -0.9761 H   0  0  0  0  0  0  0  0  0  0  0  0
    1.7036    0.5487   -2.6075 H   0  0  0  0  0  0  0  0  0  0  0  0
   -1.3493    3.6128   -2.8981 H   0  0  0  0  0  0  0  0  0  0  0  0
   -2.7550    2.3715   -1.2447 H   0  0  0  0  0  0  0  0  0  0  0  0
    0.9900    2.8859   -3.7386 N   0  0  0  0  0  0  0  0  0  0  0  0
    1.9561    3.1491   -4.2844 N   0  0  0  0  0  0  0  0  0  0  0  0
    6.2942    1.3760   -5.3496 C   0  0  0  0  0  0  0  0  0  0  0  0
    7.6880    1.3598   -5.3615 C   0  0  0  0  0  0  0  0  0  0  0  0
    8.4156    0.7757   -4.3150 C   0  0  0  0  0  0  0  0  0  0  0  0
    7.7069    0.2040   -3.2485 C   0  0  0  0  0  0  0  0  0  0  0  0
    6.3136    0.2116   -3.2226 C   0  0  0  0  0  0  0  0  0  0  0  0
    5.6135    0.8021   -4.2754 C   0  0  0  0  0  0  0  0  0  0  0  0
    5.7307    1.8141   -6.1661 H   0  0  0  0  0  0  0  0  0  0  0  0
    8.2199    1.8038   -6.1995 H   0  0  0  0  0  0  0  0  0  0  0  0
    8.2541   -0.2556   -2.4289 H   0  0  0  0  0  0  0  0  0  0  0  0
    5.7662   -0.2439   -2.4047 H   0  0  0  0  0  0  0  0  0  0  0  0
    3.8215    0.8545   -4.2365 S   0  0  0  0  0  0  0  0  0  0  0  0
    3.3702   -0.3329   -3.4691 O   0  0  0  0  0  0  0  0  0  0  0  0
    3.3409    0.9733   -5.6262 O   0  0  0  0  0  0  0  0  0  0  0  0
    3.5044    2.1313   -3.4262 O   0  0  0  0  0  0  0  0  0  0  0  0
    9.9249    0.7323   -4.3517 C   0  0  0  0  0  0  0  0  0  0  0  0
   10.2821   -0.1878   -4.8319 H   0  0  0  0  0  0  0  0  0  0  0  0
   10.3368    1.5737   -4.9170 H   0  0  0  0  0  0  0  0  0  0  0  0
   10.3521    0.7580   -3.3449 H   0  0  0  0  0  0  0  0  0  0  0  0
   -1.9248    0.2313   -0.2955 H   0  0  0  0  0  0  0  0  0  0  0  0
  1  6  1  0  0  0  0
  1  7  1  0  0  0  0
  2  1  2  0  0  0  0
  3  4  2  0  0  0  0
  3  2  1  0  0  0  0
  4  5  1  0  0  0  0
  5 10  1  0  0  0  0
  5  6  2  0  0  0  0
  6 31  1  0  0  0  0
  8  2  1  0  0  0  0
  9  4  1  0  0  0  0
 11  3  1  0  0  0  0
 12 11  2  0  0  0  0
 13 18  1  0  0  0  0
 14 13  2  0  0  0  0
 14 15  1  0  0  0  0
 15 16  2  0  0  0  0
 16 17  1  0  0  0  0
 16 21  1  0  0  0  0
 17 22  1  0  0  0  0
 18 23  1  0  0  0  0
 18 17  2  0  0  0  0
 19 13  1  0  0  0  0
 20 14  1  0  0  0  0
 23 24  2  0  0  0  0
 23 26  1  0  0  0  0
 25 23  2  0  0  0  0
 27 15  1  0  0  0  0
 27 30  1  0  0  0  0
 28 27  1  0  0  0  0
 29 27  1  0  0  0  0
M  RAD  2  12   2  26   2
M  END
