Coordinates from ORCA-job Ph-N2-X-OTs-B3LYPG-6-31G_dp-scan-d09-49-n400
 OpenBabel08281821093D

 31 31  0  0  0  0  0  0  0  0999 V2000
   -0.1377    0.2909   -1.3716 C   0  0  0  0  0  0  0  0  0  0  0  0
    0.7222    0.9628   -2.2373 C   0  0  0  0  0  0  0  0  0  0  0  0
    0.2609    2.1704   -2.7844 C   0  0  0  0  0  0  0  0  0  0  0  0
   -1.0050    2.7046   -2.5049 C   0  0  0  0  0  0  0  0  0  0  0  0
   -1.8324    2.0168   -1.6260 C   0  0  0  0  0  0  0  0  0  0  0  0
   -1.3978    0.8117   -1.0629 C   0  0  0  0  0  0  0  0  0  0  0  0
    0.1856   -0.6499   -0.9393 H   0  0  0  0  0  0  0  0  0  0  0  0
    1.6985    0.5617   -2.4941 H   0  0  0  0  0  0  0  0  0  0  0  0
   -1.3115    3.6366   -2.9662 H   0  0  0  0  0  0  0  0  0  0  0  0
   -2.8130    2.4126   -1.3855 H   0  0  0  0  0  0  0  0  0  0  0  0
    1.0623    2.8942   -3.6784 N   0  0  0  0  0  0  0  0  0  0  0  0
    2.0643    3.1195   -4.1788 N   0  0  0  0  0  0  0  0  0  0  0  0
    6.2692    1.3750   -5.3130 C   0  0  0  0  0  0  0  0  0  0  0  0
    7.6624    1.3905   -5.3602 C   0  0  0  0  0  0  0  0  0  0  0  0
    8.4291    0.7948   -4.3489 C   0  0  0  0  0  0  0  0  0  0  0  0
    7.7604    0.1781   -3.2815 C   0  0  0  0  0  0  0  0  0  0  0  0
    6.3685    0.1534   -3.2207 C   0  0  0  0  0  0  0  0  0  0  0  0
    5.6289    0.7568   -4.2388 C   0  0  0  0  0  0  0  0  0  0  0  0
    5.6758    1.8226   -6.1028 H   0  0  0  0  0  0  0  0  0  0  0  0
    8.1629    1.8688   -6.1987 H   0  0  0  0  0  0  0  0  0  0  0  0
    8.3381   -0.2914   -2.4890 H   0  0  0  0  0  0  0  0  0  0  0  0
    5.8523   -0.3366   -2.4023 H   0  0  0  0  0  0  0  0  0  0  0  0
    3.8378    0.7661   -4.1518 S   0  0  0  0  0  0  0  0  0  0  0  0
    3.4329   -0.4470   -3.4044 O   0  0  0  0  0  0  0  0  0  0  0  0
    3.3175    0.9187   -5.5241 O   0  0  0  0  0  0  0  0  0  0  0  0
    3.5115    2.0163   -3.2974 O   0  0  0  0  0  0  0  0  0  0  0  0
    9.9376    0.7866   -4.4240 C   0  0  0  0  0  0  0  0  0  0  0  0
   10.3030   -0.1158   -4.9312 H   0  0  0  0  0  0  0  0  0  0  0  0
   10.3161    1.6480   -4.9824 H   0  0  0  0  0  0  0  0  0  0  0  0
   10.3895    0.8024   -3.4278 H   0  0  0  0  0  0  0  0  0  0  0  0
   -2.0504    0.2717   -0.3834 H   0  0  0  0  0  0  0  0  0  0  0  0
  1  6  1  0  0  0  0
  1  7  1  0  0  0  0
  2  1  2  0  0  0  0
  3  4  2  0  0  0  0
  3  2  1  0  0  0  0
  4  5  1  0  0  0  0
  5 10  1  0  0  0  0
  5  6  2  0  0  0  0
  6 31  1  0  0  0  0
  8  2  1  0  0  0  0
  9  4  1  0  0  0  0
 11  3  1  0  0  0  0
 12 11  2  0  0  0  0
 13 18  1  0  0  0  0
 14 13  2  0  0  0  0
 14 15  1  0  0  0  0
 15 16  2  0  0  0  0
 16 17  1  0  0  0  0
 16 21  1  0  0  0  0
 17 22  1  0  0  0  0
 18 23  1  0  0  0  0
 18 17  2  0  0  0  0
 19 13  1  0  0  0  0
 20 14  1  0  0  0  0
 23 24  2  0  0  0  0
 23 26  1  0  0  0  0
 25 23  2  0  0  0  0
 27 15  1  0  0  0  0
 27 30  1  0  0  0  0
 28 27  1  0  0  0  0
 29 27  1  0  0  0  0
M  RAD  2  12   2  26   2
M  END
