Coordinates from ORCA-job Ph-N2-X-OTs-B3LYPG-6-31G_dp-scan-d09-49-n400
 OpenBabel08281821093D

 31 32  0  0  0  0  0  0  0  0999 V2000
    0.0666    1.4957   -0.6013 C   0  0  0  0  0  0  0  0  0  0  0  0
    1.0756    1.6960   -1.5401 C   0  0  0  0  0  0  0  0  0  0  0  0
    0.7067    2.0777   -2.8353 C   0  0  0  0  0  0  0  0  0  0  0  0
   -0.6276    2.2979   -3.1920 C   0  0  0  0  0  0  0  0  0  0  0  0
   -1.6214    2.0622   -2.2462 C   0  0  0  0  0  0  0  0  0  0  0  0
   -1.2755    1.6636   -0.9525 C   0  0  0  0  0  0  0  0  0  0  0  0
    0.3333    1.2006    0.4084 H   0  0  0  0  0  0  0  0  0  0  0  0
    2.1183    1.5877   -1.2723 H   0  0  0  0  0  0  0  0  0  0  0  0
   -0.8672    2.6261   -4.1972 H   0  0  0  0  0  0  0  0  0  0  0  0
   -2.6630    2.2037   -2.5160 H   0  0  0  0  0  0  0  0  0  0  0  0
    1.6816    2.3577   -3.8229 N   0  0  0  0  0  0  0  0  0  0  0  0
    2.6582    1.8864   -4.2571 N   0  0  0  0  0  0  0  0  0  0  0  0
    5.9210    1.1025   -5.2916 C   0  0  0  0  0  0  0  0  0  0  0  0
    7.2099    1.6194   -5.1672 C   0  0  0  0  0  0  0  0  0  0  0  0
    8.0958    1.1339   -4.1958 C   0  0  0  0  0  0  0  0  0  0  0  0
    7.6560    0.1083   -3.3457 C   0  0  0  0  0  0  0  0  0  0  0  0
    6.3715   -0.4190   -3.4559 C   0  0  0  0  0  0  0  0  0  0  0  0
    5.5075    0.0878   -4.4283 C   0  0  0  0  0  0  0  0  0  0  0  0
    5.2412    1.4682   -6.0532 H   0  0  0  0  0  0  0  0  0  0  0  0
    7.5337    2.4099   -5.8397 H   0  0  0  0  0  0  0  0  0  0  0  0
    8.3311   -0.2858   -2.5900 H   0  0  0  0  0  0  0  0  0  0  0  0
    6.0400   -1.2242   -2.8087 H   0  0  0  0  0  0  0  0  0  0  0  0
    3.8434   -0.5634   -4.5582 S   0  0  0  0  0  0  0  0  0  0  0  0
    3.8618   -1.9439   -4.0678 O   0  0  0  0  0  0  0  0  0  0  0  0
    3.3510   -0.2686   -5.9069 O   0  0  0  0  0  0  0  0  0  0  0  0
    3.0180    0.3022   -3.4897 O   0  0  0  0  0  0  0  0  0  0  0  0
    9.5012    1.6756   -4.0876 C   0  0  0  0  0  0  0  0  0  0  0  0
   10.2041    1.0637   -4.6659 H   0  0  0  0  0  0  0  0  0  0  0  0
    9.5674    2.6977   -4.4713 H   0  0  0  0  0  0  0  0  0  0  0  0
    9.8511    1.6779   -3.0508 H   0  0  0  0  0  0  0  0  0  0  0  0
   -2.0520    1.4935   -0.2133 H   0  0  0  0  0  0  0  0  0  0  0  0
  1  7  1  0  0  0  0
  2  8  1  0  0  0  0
  2  1  2  0  0  0  0
  3  2  1  0  0  0  0
  4  3  2  0  0  0  0
  4  5  1  0  0  0  0
  5  6  2  0  0  0  0
  6  1  1  0  0  0  0
  6 31  1  0  0  0  0
  9  4  1  0  0  0  0
 10  5  1  0  0  0  0
 11  3  1  0  0  0  0
 12 11  1  0  0  0  0
 12 26  1  0  0  0  0
 13 14  2  0  0  0  0
 13 18  1  0  0  0  0
 14 15  1  0  0  0  0
 15 27  1  0  0  0  0
 15 16  2  0  0  0  0
 16 21  1  0  0  0  0
 17 16  1  0  0  0  0
 17 22  1  0  0  0  0
 18 17  2  0  0  0  0
 19 13  1  0  0  0  0
 20 14  1  0  0  0  0
 23 18  1  0  0  0  0
 23 24  2  0  0  0  0
 23 26  1  0  0  0  0
 25 23  2  0  0  0  0
 27 30  1  0  0  0  0
 28 27  1  0  0  0  0
 29 27  1  0  0  0  0
M  RAD  2  11   2  12   2
M  END
