Coordinates from ORCA-job Ph-N2-X-OTs-B3LYPG-6-31G_dp-scan-d09-49-n400
 OpenBabel08281821093D

 31 31  0  0  0  0  0  0  0  0999 V2000
   -0.1519    0.2957   -1.3690 C   0  0  0  0  0  0  0  0  0  0  0  0
    0.7169    0.9624   -2.2297 C   0  0  0  0  0  0  0  0  0  0  0  0
    0.2656    2.1715   -2.7820 C   0  0  0  0  0  0  0  0  0  0  0  0
   -0.9996    2.7117   -2.5119 C   0  0  0  0  0  0  0  0  0  0  0  0
   -1.8365    2.0292   -1.6378 C   0  0  0  0  0  0  0  0  0  0  0  0
   -1.4117    0.8230   -1.0699 C   0  0  0  0  0  0  0  0  0  0  0  0
    0.1639   -0.6459   -0.9331 H   0  0  0  0  0  0  0  0  0  0  0  0
    1.6930    0.5574   -2.4788 H   0  0  0  0  0  0  0  0  0  0  0  0
   -1.2985    3.6446   -2.9766 H   0  0  0  0  0  0  0  0  0  0  0  0
   -2.8170    2.4300   -1.4048 H   0  0  0  0  0  0  0  0  0  0  0  0
    1.0765    2.8912   -3.6711 N   0  0  0  0  0  0  0  0  0  0  0  0
    2.0852    3.1057   -4.1635 N   0  0  0  0  0  0  0  0  0  0  0  0
    6.2637    1.3746   -5.3060 C   0  0  0  0  0  0  0  0  0  0  0  0
    7.6566    1.3992   -5.3578 C   0  0  0  0  0  0  0  0  0  0  0  0
    8.4305    0.8010   -4.3535 C   0  0  0  0  0  0  0  0  0  0  0  0
    7.7694    0.1724   -3.2884 C   0  0  0  0  0  0  0  0  0  0  0  0
    6.3779    0.1385   -3.2230 C   0  0  0  0  0  0  0  0  0  0  0  0
    5.6310    0.7447   -4.2341 C   0  0  0  0  0  0  0  0  0  0  0  0
    5.6650    1.8242   -6.0906 H   0  0  0  0  0  0  0  0  0  0  0  0
    8.1513    1.8865   -6.1946 H   0  0  0  0  0  0  0  0  0  0  0  0
    8.3526   -0.2993   -2.5013 H   0  0  0  0  0  0  0  0  0  0  0  0
    5.8676   -0.3605   -2.4064 H   0  0  0  0  0  0  0  0  0  0  0  0
    3.8402    0.7422   -4.1405 S   0  0  0  0  0  0  0  0  0  0  0  0
    3.4450   -0.4773   -3.3994 O   0  0  0  0  0  0  0  0  0  0  0  0
    3.3143    0.9022   -5.5098 O   0  0  0  0  0  0  0  0  0  0  0  0
    3.5089    1.9849   -3.2760 O   0  0  0  0  0  0  0  0  0  0  0  0
    9.9388    0.8028   -4.4337 C   0  0  0  0  0  0  0  0  0  0  0  0
   10.3082   -0.0945   -4.9469 H   0  0  0  0  0  0  0  0  0  0  0  0
   10.3100    1.6695   -4.9886 H   0  0  0  0  0  0  0  0  0  0  0  0
   10.3939    0.8161   -3.4389 H   0  0  0  0  0  0  0  0  0  0  0  0
   -2.0716    0.2871   -0.3941 H   0  0  0  0  0  0  0  0  0  0  0  0
  1  6  1  0  0  0  0
  1  7  1  0  0  0  0
  2  1  2  0  0  0  0
  3  4  2  0  0  0  0
  3  2  1  0  0  0  0
  4  5  1  0  0  0  0
  5 10  1  0  0  0  0
  5  6  2  0  0  0  0
  6 31  1  0  0  0  0
  8  2  1  0  0  0  0
  9  4  1  0  0  0  0
 11  3  1  0  0  0  0
 12 11  2  0  0  0  0
 13 18  1  0  0  0  0
 14 13  2  0  0  0  0
 14 15  1  0  0  0  0
 15 16  2  0  0  0  0
 16 17  1  0  0  0  0
 16 21  1  0  0  0  0
 17 22  1  0  0  0  0
 18 23  1  0  0  0  0
 18 17  2  0  0  0  0
 19 13  1  0  0  0  0
 20 14  1  0  0  0  0
 23 24  2  0  0  0  0
 23 26  1  0  0  0  0
 25 23  2  0  0  0  0
 27 15  1  0  0  0  0
 27 30  1  0  0  0  0
 28 27  1  0  0  0  0
 29 27  1  0  0  0  0
M  RAD  2  12   2  26   2
M  END
