Coordinates from ORCA-job Ph-N2-X-OTs-B3LYPG-6-31G_dp-scan-d09-49-n400
 OpenBabel08281821093D

 31 31  0  0  0  0  0  0  0  0999 V2000
   -0.4756    0.4299   -1.3914 C   0  0  0  0  0  0  0  0  0  0  0  0
    0.6847    1.0529   -1.8401 C   0  0  0  0  0  0  0  0  0  0  0  0
    0.5384    2.2361   -2.5827 C   0  0  0  0  0  0  0  0  0  0  0  0
   -0.7105    2.8007   -2.8740 C   0  0  0  0  0  0  0  0  0  0  0  0
   -1.8523    2.1551   -2.4143 C   0  0  0  0  0  0  0  0  0  0  0  0
   -1.7328    0.9729   -1.6760 C   0  0  0  0  0  0  0  0  0  0  0  0
   -0.3944   -0.4899   -0.8220 H   0  0  0  0  0  0  0  0  0  0  0  0
    1.6757    0.6626   -1.6436 H   0  0  0  0  0  0  0  0  0  0  0  0
   -0.7660    3.7176   -3.4499 H   0  0  0  0  0  0  0  0  0  0  0  0
   -2.8311    2.5690   -2.6314 H   0  0  0  0  0  0  0  0  0  0  0  0
    1.6639    2.9118   -3.0716 N   0  0  0  0  0  0  0  0  0  0  0  0
    2.7995    2.9526   -3.2231 N   0  0  0  0  0  0  0  0  0  0  0  0
    5.9751    1.2669   -5.0296 C   0  0  0  0  0  0  0  0  0  0  0  0
    7.3155    1.4661   -5.3569 C   0  0  0  0  0  0  0  0  0  0  0  0
    8.3420    0.9210   -4.5729 C   0  0  0  0  0  0  0  0  0  0  0  0
    7.9894    0.1662   -3.4450 C   0  0  0  0  0  0  0  0  0  0  0  0
    6.6541   -0.0429   -3.1057 C   0  0  0  0  0  0  0  0  0  0  0  0
    5.6512    0.5143   -3.9004 C   0  0  0  0  0  0  0  0  0  0  0  0
    5.1807    1.6746   -5.6446 H   0  0  0  0  0  0  0  0  0  0  0  0
    7.5692    2.0492   -6.2390 H   0  0  0  0  0  0  0  0  0  0  0  0
    8.7716   -0.2670   -2.8270 H   0  0  0  0  0  0  0  0  0  0  0  0
    6.3841   -0.6409   -2.2418 H   0  0  0  0  0  0  0  0  0  0  0  0
    3.9315    0.2765   -3.4484 S   0  0  0  0  0  0  0  0  0  0  0  0
    3.8238   -1.0475   -2.8153 O   0  0  0  0  0  0  0  0  0  0  0  0
    3.1162    0.5511   -4.6485 O   0  0  0  0  0  0  0  0  0  0  0  0
    3.6539    1.3653   -2.3662 O   0  0  0  0  0  0  0  0  0  0  0  0
    9.7908    1.1140   -4.9537 C   0  0  0  0  0  0  0  0  0  0  0  0
   10.1073    0.3683   -5.6940 H   0  0  0  0  0  0  0  0  0  0  0  0
    9.9609    2.1007   -5.3960 H   0  0  0  0  0  0  0  0  0  0  0  0
   10.4497    1.0130   -4.0863 H   0  0  0  0  0  0  0  0  0  0  0  0
   -2.6271    0.4706   -1.3205 H   0  0  0  0  0  0  0  0  0  0  0  0
  1  7  1  0  0  0  0
  2  8  1  0  0  0  0
  2  1  2  0  0  0  0
  3  2  1  0  0  0  0
  4  3  2  0  0  0  0
  4  5  1  0  0  0  0
  5  6  2  0  0  0  0
  6  1  1  0  0  0  0
  6 31  1  0  0  0  0
  9  4  1  0  0  0  0
 10  5  1  0  0  0  0
 11  3  1  0  0  0  0
 12 11  2  0  0  0  0
 13 18  1  0  0  0  0
 14 13  2  0  0  0  0
 14 15  1  0  0  0  0
 15 16  2  0  0  0  0
 16 17  1  0  0  0  0
 16 21  1  0  0  0  0
 17 22  1  0  0  0  0
 18 23  1  0  0  0  0
 18 17  2  0  0  0  0
 19 13  1  0  0  0  0
 20 14  1  0  0  0  0
 23 24  2  0  0  0  0
 23 26  1  0  0  0  0
 25 23  2  0  0  0  0
 27 15  1  0  0  0  0
 27 30  1  0  0  0  0
 28 27  1  0  0  0  0
 29 27  1  0  0  0  0
M  RAD  2  12   2  26   2
M  END
