Coordinates from ORCA-job Ph-N2-X-OTs-B3LYPG-6-31G_dp-scan-d09-49-n400
 OpenBabel08281821093D

 31 31  0  0  0  0  0  0  0  0999 V2000
   -0.3133    0.8908   -0.9681 C   0  0  0  0  0  0  0  0  0  0  0  0
    0.7239    0.9213   -1.8961 C   0  0  0  0  0  0  0  0  0  0  0  0
    0.7165    1.9441   -2.8591 C   0  0  0  0  0  0  0  0  0  0  0  0
   -0.2914    2.9185   -2.8970 C   0  0  0  0  0  0  0  0  0  0  0  0
   -1.3193    2.8650   -1.9623 C   0  0  0  0  0  0  0  0  0  0  0  0
   -1.3289    1.8515   -0.9994 C   0  0  0  0  0  0  0  0  0  0  0  0
   -0.3279    0.1080   -0.2161 H   0  0  0  0  0  0  0  0  0  0  0  0
    1.5186    0.1890   -1.8936 H   0  0  0  0  0  0  0  0  0  0  0  0
   -0.2528    3.6919   -3.6566 H   0  0  0  0  0  0  0  0  0  0  0  0
   -2.1088    3.6095   -1.9829 H   0  0  0  0  0  0  0  0  0  0  0  0
    1.7133    2.0697   -3.8412 N   0  0  0  0  0  0  0  0  0  0  0  0
    2.6602    1.5604   -4.2888 N   0  0  0  0  0  0  0  0  0  0  0  0
    5.9198    0.8390   -5.3546 C   0  0  0  0  0  0  0  0  0  0  0  0
    7.1458    1.5032   -5.3115 C   0  0  0  0  0  0  0  0  0  0  0  0
    8.0418    1.3040   -4.2526 C   0  0  0  0  0  0  0  0  0  0  0  0
    7.6779    0.4158   -3.2286 C   0  0  0  0  0  0  0  0  0  0  0  0
    6.4584   -0.2559   -3.2574 C   0  0  0  0  0  0  0  0  0  0  0  0
    5.5813   -0.0349   -4.3218 C   0  0  0  0  0  0  0  0  0  0  0  0
    5.2323    0.9809   -6.1811 H   0  0  0  0  0  0  0  0  0  0  0  0
    7.4138    2.1823   -6.1170 H   0  0  0  0  0  0  0  0  0  0  0  0
    8.3628    0.2447   -2.4017 H   0  0  0  0  0  0  0  0  0  0  0  0
    6.1876   -0.9566   -2.4749 H   0  0  0  0  0  0  0  0  0  0  0  0
    4.0030   -0.8851   -4.3562 S   0  0  0  0  0  0  0  0  0  0  0  0
    4.1809   -2.1774   -3.6865 O   0  0  0  0  0  0  0  0  0  0  0  0
    3.5000   -0.8323   -5.7321 O   0  0  0  0  0  0  0  0  0  0  0  0
    3.0774    0.0013   -3.4087 O   0  0  0  0  0  0  0  0  0  0  0  0
    9.3821    2.0000   -4.2280 C   0  0  0  0  0  0  0  0  0  0  0  0
   10.1699    1.3507   -4.6299 H   0  0  0  0  0  0  0  0  0  0  0  0
    9.3713    2.9122   -4.8310 H   0  0  0  0  0  0  0  0  0  0  0  0
    9.6747    2.2689   -3.2086 H   0  0  0  0  0  0  0  0  0  0  0  0
   -2.1315    1.8104   -0.2686 H   0  0  0  0  0  0  0  0  0  0  0  0
  1  7  1  0  0  0  0
  2  8  1  0  0  0  0
  2  1  2  0  0  0  0
  3  2  1  0  0  0  0
  4  3  2  0  0  0  0
  4  5  1  0  0  0  0
  5  6  2  0  0  0  0
  6  1  1  0  0  0  0
  6 31  1  0  0  0  0
  9  4  1  0  0  0  0
 10  5  1  0  0  0  0
 11  3  1  0  0  0  0
 12 11  2  0  0  0  0
 13 14  2  0  0  0  0
 13 18  1  0  0  0  0
 14 15  1  0  0  0  0
 15 27  1  0  0  0  0
 15 16  2  0  0  0  0
 16 21  1  0  0  0  0
 17 16  1  0  0  0  0
 17 22  1  0  0  0  0
 18 17  2  0  0  0  0
 19 13  1  0  0  0  0
 20 14  1  0  0  0  0
 23 18  1  0  0  0  0
 23 24  2  0  0  0  0
 23 26  1  0  0  0  0
 25 23  2  0  0  0  0
 27 30  1  0  0  0  0
 28 27  1  0  0  0  0
 29 27  1  0  0  0  0
M  RAD  2  12   2  26   2
M  END
