Coordinates from ORCA-job Ph-N2-X-OTs-B3LYPG-6-31G_dp-scan-d09-49-n400
 OpenBabel08281821093D

 31 31  0  0  0  0  0  0  0  0999 V2000
    0.2057   -0.0494   -1.8034 C   0  0  0  0  0  0  0  0  0  0  0  0
    0.8811    0.9061   -2.5699 C   0  0  0  0  0  0  0  0  0  0  0  0
    0.2065    2.1300   -2.7118 C   0  0  0  0  0  0  0  0  0  0  0  0
   -1.0533    2.4400   -2.1653 C   0  0  0  0  0  0  0  0  0  0  0  0
   -1.6732    1.4568   -1.4121 C   0  0  0  0  0  0  0  0  0  0  0  0
   -1.0411    0.2149   -1.2341 C   0  0  0  0  0  0  0  0  0  0  0  0
    0.6702   -1.0199   -1.6559 H   0  0  0  0  0  0  0  0  0  0  0  0
    1.9159    0.7170   -3.0877 H   0  0  0  0  0  0  0  0  0  0  0  0
   -1.5071    3.4116   -2.3288 H   0  0  0  0  0  0  0  0  0  0  0  0
   -2.6436    1.6477   -0.9675 H   0  0  0  0  0  0  0  0  0  0  0  0
    0.8363    3.1149   -3.4662 N   0  0  0  0  0  0  0  0  0  0  0  0
    1.5335    3.7752   -4.0455 N   0  0  0  0  0  0  0  0  0  0  0  0
    6.2597    0.8162   -5.4748 C   0  0  0  0  0  0  0  0  0  0  0  0
    7.6152    0.4954   -5.3919 C   0  0  0  0  0  0  0  0  0  0  0  0
    8.3181    0.6247   -4.1877 C   0  0  0  0  0  0  0  0  0  0  0  0
    7.6275    1.0976   -3.0608 C   0  0  0  0  0  0  0  0  0  0  0  0
    6.2749    1.4199   -3.1279 C   0  0  0  0  0  0  0  0  0  0  0  0
    5.5943    1.2731   -4.3389 C   0  0  0  0  0  0  0  0  0  0  0  0
    5.7149    0.7293   -6.4086 H   0  0  0  0  0  0  0  0  0  0  0  0
    8.1353    0.1426   -6.2791 H   0  0  0  0  0  0  0  0  0  0  0  0
    8.1604    1.2201   -2.1206 H   0  0  0  0  0  0  0  0  0  0  0  0
    5.7510    1.8015   -2.2580 H   0  0  0  0  0  0  0  0  0  0  0  0
    3.8413    1.6411   -4.4367 S   0  0  0  0  0  0  0  0  0  0  0  0
    3.1475    0.4792   -3.7559 O   0  0  0  0  0  0  0  0  0  0  0  0
    3.4924    1.7783   -5.8627 O   0  0  0  0  0  0  0  0  0  0  0  0
    3.6474    2.8934   -3.6219 O   0  0  0  0  0  0  0  0  0  0  0  0
    9.7784    0.2497   -4.0943 C   0  0  0  0  0  0  0  0  0  0  0  0
    9.9029   -0.7464   -3.6509 H   0  0  0  0  0  0  0  0  0  0  0  0
   10.2507    0.2292   -5.0804 H   0  0  0  0  0  0  0  0  0  0  0  0
   10.3340    0.9532   -3.4660 H   0  0  0  0  0  0  0  0  0  0  0  0
   -1.5376   -0.5522   -0.6465 H   0  0  0  0  0  0  0  0  0  0  0  0
  1  7  1  0  0  0  0
  1  6  2  0  0  0  0
  2  1  1  0  0  0  0
  3  2  2  0  0  0  0
  3  4  1  0  0  0  0
  4  5  2  0  0  0  0
  5  6  1  0  0  0  0
  5 10  1  0  0  0  0
  6 31  1  0  0  0  0
  8  2  1  0  0  0  0
  9  4  1  0  0  0  0
 11  3  1  0  0  0  0
 12 11  1  0  0  0  0
 13 14  2  0  0  0  0
 13 18  1  0  0  0  0
 14 15  1  0  0  0  0
 15 27  1  0  0  0  0
 15 16  2  0  0  0  0
 16 21  1  0  0  0  0
 17 16  1  0  0  0  0
 17 22  1  0  0  0  0
 18 17  2  0  0  0  0
 19 13  1  0  0  0  0
 20 14  1  0  0  0  0
 23 18  1  0  0  0  0
 23 24  2  0  0  0  0
 23 26  1  0  0  0  0
 25 23  2  0  0  0  0
 27 28  1  0  0  0  0
 27 30  1  0  0  0  0
 29 27  1  0  0  0  0
M  RAD  3  11   2  12   3  26   2
M  END
