Coordinates from ORCA-job Ph-N2-X-OTs-B3LYPG-6-31G_dp-scan-d09-49-n400
 OpenBabel08281821093D

 31 31  0  0  0  0  0  0  0  0999 V2000
    1.1336   -0.0181   -2.1607 C   0  0  0  0  0  0  0  0  0  0  0  0
    1.2745    1.0314   -3.1027 C   0  0  0  0  0  0  0  0  0  0  0  0
    0.5524    2.1654   -2.6858 C   0  0  0  0  0  0  0  0  0  0  0  0
   -0.2374    2.3521   -1.5220 C   0  0  0  0  0  0  0  0  0  0  0  0
   -0.3120    1.2733   -0.6668 C   0  0  0  0  0  0  0  0  0  0  0  0
    0.3783    0.0856   -0.9949 C   0  0  0  0  0  0  0  0  0  0  0  0
    1.6408   -0.9617   -2.3556 H   0  0  0  0  0  0  0  0  0  0  0  0
    2.2043    0.9300   -4.5919 H   0  0  0  0  0  0  0  0  0  0  0  0
   -0.7476    3.2890   -1.3193 H   0  0  0  0  0  0  0  0  0  0  0  0
   -0.8942    1.3383    0.2464 H   0  0  0  0  0  0  0  0  0  0  0  0
    0.6186    3.2532   -3.5493 N   0  0  0  0  0  0  0  0  0  0  0  0
    0.7018    4.1008   -4.2697 N   0  0  0  0  0  0  0  0  0  0  0  0
    6.2565    0.9309   -5.6751 C   0  0  0  0  0  0  0  0  0  0  0  0
    7.4242    0.4574   -5.0762 C   0  0  0  0  0  0  0  0  0  0  0  0
    7.5845    0.4750   -3.6848 C   0  0  0  0  0  0  0  0  0  0  0  0
    6.5421    0.9909   -2.8989 C   0  0  0  0  0  0  0  0  0  0  0  0
    5.3714    1.4697   -3.4800 C   0  0  0  0  0  0  0  0  0  0  0  0
    5.2359    1.4328   -4.8697 C   0  0  0  0  0  0  0  0  0  0  0  0
    6.1344    0.9288   -6.7528 H   0  0  0  0  0  0  0  0  0  0  0  0
    8.2256    0.0727   -5.7016 H   0  0  0  0  0  0  0  0  0  0  0  0
    6.6539    1.0241   -1.8178 H   0  0  0  0  0  0  0  0  0  0  0  0
    4.5730    1.8775   -2.8688 H   0  0  0  0  0  0  0  0  0  0  0  0
    3.7324    2.0385   -5.6293 S   0  0  0  0  0  0  0  0  0  0  0  0
    2.6996    0.8434   -5.4216 O   0  0  0  0  0  0  0  0  0  0  0  0
    3.9696    2.1752   -7.0622 O   0  0  0  0  0  0  0  0  0  0  0  0
    3.2732    3.1951   -4.8420 O   0  0  0  0  0  0  0  0  0  0  0  0
    8.8394   -0.0638   -3.0399 C   0  0  0  0  0  0  0  0  0  0  0  0
    8.6894   -1.0914   -2.6866 H   0  0  0  0  0  0  0  0  0  0  0  0
    9.6765   -0.0791   -3.7437 H   0  0  0  0  0  0  0  0  0  0  0  0
    9.1340    0.5359   -2.1731 H   0  0  0  0  0  0  0  0  0  0  0  0
    0.3110   -0.7619   -0.3156 H   0  0  0  0  0  0  0  0  0  0  0  0
  1  6  2  0  0  0  0
  2  3  2  0  0  0  0
  2  1  1  0  0  0  0
  3  4  1  0  0  0  0
  4  9  1  0  0  0  0
  4  5  2  0  0  0  0
  5 10  1  0  0  0  0
  6  5  1  0  0  0  0
  6 31  1  0  0  0  0
  7  1  1  0  0  0  0
 11  3  1  0  0  0  0
 12 11  1  0  0  0  0
 13 14  2  0  0  0  0
 13 18  1  0  0  0  0
 14 15  1  0  0  0  0
 15 27  1  0  0  0  0
 15 16  2  0  0  0  0
 16 21  1  0  0  0  0
 17 16  1  0  0  0  0
 17 22  1  0  0  0  0
 18 17  2  0  0  0  0
 19 13  1  0  0  0  0
 20 14  1  0  0  0  0
 23 24  1  0  0  0  0
 23 18  1  0  0  0  0
 23 26  2  0  0  0  0
 24  8  1  0  0  0  0
 25 23  2  0  0  0  0
 27 28  1  0  0  0  0
 27 30  1  0  0  0  0
 29 27  1  0  0  0  0
M  RAD  3   2   2  11   2  12   3
M  END
