Coordinates from ORCA-job Ph-N2-X-OTs-B3LYPG-6-31G_dp-scan-d09-49-n400
 OpenBabel08281821093D

 31 31  0  0  0  0  0  0  0  0999 V2000
   -0.4937    0.4409   -1.3894 C   0  0  0  0  0  0  0  0  0  0  0  0
    0.6772    1.0469   -1.8339 C   0  0  0  0  0  0  0  0  0  0  0  0
    0.5511    2.2301   -2.5800 C   0  0  0  0  0  0  0  0  0  0  0  0
   -0.6885    2.8111   -2.8787 C   0  0  0  0  0  0  0  0  0  0  0  0
   -1.8414    2.1823   -2.4234 C   0  0  0  0  0  0  0  0  0  0  0  0
   -1.7419    1.0004   -1.6818 C   0  0  0  0  0  0  0  0  0  0  0  0
   -0.4282   -0.4784   -0.8171 H   0  0  0  0  0  0  0  0  0  0  0  0
    1.6622    0.6444   -1.6317 H   0  0  0  0  0  0  0  0  0  0  0  0
   -0.7285    3.7274   -3.4569 H   0  0  0  0  0  0  0  0  0  0  0  0
   -2.8133    2.6091   -2.6464 H   0  0  0  0  0  0  0  0  0  0  0  0
    1.6881    2.8895   -3.0649 N   0  0  0  0  0  0  0  0  0  0  0  0
    2.8254    2.9104   -3.2112 N   0  0  0  0  0  0  0  0  0  0  0  0
    5.9640    1.2502   -5.0280 C   0  0  0  0  0  0  0  0  0  0  0  0
    7.3014    1.4676   -5.3566 C   0  0  0  0  0  0  0  0  0  0  0  0
    8.3358    0.9357   -4.5741 C   0  0  0  0  0  0  0  0  0  0  0  0
    7.9945    0.1753   -3.4464 C   0  0  0  0  0  0  0  0  0  0  0  0
    6.6625   -0.0521   -3.1061 C   0  0  0  0  0  0  0  0  0  0  0  0
    5.6513    0.4925   -3.8992 C   0  0  0  0  0  0  0  0  0  0  0  0
    5.1636    1.6479   -5.6418 H   0  0  0  0  0  0  0  0  0  0  0  0
    7.5464    2.0548   -6.2384 H   0  0  0  0  0  0  0  0  0  0  0  0
    8.7829   -0.2480   -2.8295 H   0  0  0  0  0  0  0  0  0  0  0  0
    6.4015   -0.6543   -2.2423 H   0  0  0  0  0  0  0  0  0  0  0  0
    3.9354    0.2309   -3.4458 S   0  0  0  0  0  0  0  0  0  0  0  0
    3.8447   -1.0979   -2.8210 O   0  0  0  0  0  0  0  0  0  0  0  0
    3.1150    0.5053   -4.6422 O   0  0  0  0  0  0  0  0  0  0  0  0
    3.6475    1.3095   -2.3551 O   0  0  0  0  0  0  0  0  0  0  0  0
    9.7815    1.1483   -4.9561 C   0  0  0  0  0  0  0  0  0  0  0  0
   10.1091    0.4031   -5.6921 H   0  0  0  0  0  0  0  0  0  0  0  0
    9.9367    2.1347   -5.4042 H   0  0  0  0  0  0  0  0  0  0  0  0
   10.4419    1.0620   -4.0882 H   0  0  0  0  0  0  0  0  0  0  0  0
   -2.6448    0.5113   -1.3295 H   0  0  0  0  0  0  0  0  0  0  0  0
  1  7  1  0  0  0  0
  2  8  1  0  0  0  0
  2  1  2  0  0  0  0
  3  2  1  0  0  0  0
  4  3  2  0  0  0  0
  4  5  1  0  0  0  0
  5  6  2  0  0  0  0
  6  1  1  0  0  0  0
  6 31  1  0  0  0  0
  9  4  1  0  0  0  0
 10  5  1  0  0  0  0
 11  3  1  0  0  0  0
 12 11  2  0  0  0  0
 13 18  1  0  0  0  0
 14 13  2  0  0  0  0
 14 15  1  0  0  0  0
 15 16  2  0  0  0  0
 16 17  1  0  0  0  0
 16 21  1  0  0  0  0
 17 22  1  0  0  0  0
 18 23  1  0  0  0  0
 18 17  2  0  0  0  0
 19 13  1  0  0  0  0
 20 14  1  0  0  0  0
 23 24  2  0  0  0  0
 23 26  1  0  0  0  0
 25 23  2  0  0  0  0
 27 15  1  0  0  0  0
 27 30  1  0  0  0  0
 28 27  1  0  0  0  0
 29 27  1  0  0  0  0
M  RAD  2  12   2  26   2
M  END
