Coordinates from ORCA-job Ph-N2-X-OTs-B3LYPG-6-31G_dp-scan-d09-49-n400
 OpenBabel08281821093D

 31 31  0  0  0  0  0  0  0  0999 V2000
   -0.1254    0.2877   -1.3714 C   0  0  0  0  0  0  0  0  0  0  0  0
    0.7252    0.9608   -2.2454 C   0  0  0  0  0  0  0  0  0  0  0  0
    0.2564    2.1674   -2.7879 C   0  0  0  0  0  0  0  0  0  0  0  0
   -1.0079    2.6994   -2.4970 C   0  0  0  0  0  0  0  0  0  0  0  0
   -1.8258    2.0104   -1.6102 C   0  0  0  0  0  0  0  0  0  0  0  0
   -1.3836    0.8061   -1.0511 C   0  0  0  0  0  0  0  0  0  0  0  0
    0.2036   -0.6524   -0.9420 H   0  0  0  0  0  0  0  0  0  0  0  0
    1.6999    0.5605   -2.5111 H   0  0  0  0  0  0  0  0  0  0  0  0
   -1.3204    3.6308   -2.9555 H   0  0  0  0  0  0  0  0  0  0  0  0
   -2.8049    2.4043   -1.3608 H   0  0  0  0  0  0  0  0  0  0  0  0
    1.0483    2.8921   -3.6894 N   0  0  0  0  0  0  0  0  0  0  0  0
    2.0437    3.1248   -4.1985 N   0  0  0  0  0  0  0  0  0  0  0  0
    6.2749    1.3761   -5.3204 C   0  0  0  0  0  0  0  0  0  0  0  0
    7.6684    1.3856   -5.3606 C   0  0  0  0  0  0  0  0  0  0  0  0
    8.4274    0.7911   -4.3428 C   0  0  0  0  0  0  0  0  0  0  0  0
    7.7509    0.1819   -3.2761 C   0  0  0  0  0  0  0  0  0  0  0  0
    6.3585    0.1632   -3.2223 C   0  0  0  0  0  0  0  0  0  0  0  0
    5.6266    0.7651   -4.2467 C   0  0  0  0  0  0  0  0  0  0  0  0
    5.6874    1.8226   -6.1151 H   0  0  0  0  0  0  0  0  0  0  0  0
    8.1751    1.8582   -6.1986 H   0  0  0  0  0  0  0  0  0  0  0  0
    8.3226   -0.2866   -2.4787 H   0  0  0  0  0  0  0  0  0  0  0  0
    5.8361   -0.3211   -2.4045 H   0  0  0  0  0  0  0  0  0  0  0  0
    3.8351    0.7824   -4.1693 S   0  0  0  0  0  0  0  0  0  0  0  0
    3.4218   -0.4272   -3.4198 O   0  0  0  0  0  0  0  0  0  0  0  0
    3.3227    0.9303   -5.5450 O   0  0  0  0  0  0  0  0  0  0  0  0
    3.5103    2.0372   -3.3220 O   0  0  0  0  0  0  0  0  0  0  0  0
    9.9363    0.7763   -4.4103 C   0  0  0  0  0  0  0  0  0  0  0  0
   10.3003   -0.1288   -4.9134 H   0  0  0  0  0  0  0  0  0  0  0  0
   10.3213    1.6347   -4.9689 H   0  0  0  0  0  0  0  0  0  0  0  0
   10.3832    0.7927   -3.4119 H   0  0  0  0  0  0  0  0  0  0  0  0
   -2.0288    0.2649   -0.3655 H   0  0  0  0  0  0  0  0  0  0  0  0
  1  6  1  0  0  0  0
  1  7  1  0  0  0  0
  2  1  2  0  0  0  0
  3  4  2  0  0  0  0
  3  2  1  0  0  0  0
  4  5  1  0  0  0  0
  5 10  1  0  0  0  0
  5  6  2  0  0  0  0
  6 31  1  0  0  0  0
  8  2  1  0  0  0  0
  9  4  1  0  0  0  0
 11  3  1  0  0  0  0
 12 11  2  0  0  0  0
 13 18  1  0  0  0  0
 14 13  2  0  0  0  0
 14 15  1  0  0  0  0
 15 16  2  0  0  0  0
 16 17  1  0  0  0  0
 16 21  1  0  0  0  0
 17 22  1  0  0  0  0
 18 23  1  0  0  0  0
 18 17  2  0  0  0  0
 19 13  1  0  0  0  0
 20 14  1  0  0  0  0
 23 24  2  0  0  0  0
 23 26  1  0  0  0  0
 25 23  2  0  0  0  0
 27 15  1  0  0  0  0
 27 30  1  0  0  0  0
 28 27  1  0  0  0  0
 29 27  1  0  0  0  0
M  RAD  2  12   2  26   2
M  END
