Coordinates from ORCA-job Ph-N2-X-OTs-B3LYPG-6-31G_dp-scan-d09-49-n400
 OpenBabel08281821093D

 31 31  0  0  0  0  0  0  0  0999 V2000
   -0.3221    0.8752   -0.9894 C   0  0  0  0  0  0  0  0  0  0  0  0
    0.7072    0.8904   -1.9265 C   0  0  0  0  0  0  0  0  0  0  0  0
    0.7250    1.9323   -2.8688 C   0  0  0  0  0  0  0  0  0  0  0  0
   -0.2514    2.9389   -2.8783 C   0  0  0  0  0  0  0  0  0  0  0  0
   -1.2706    2.9017   -1.9334 C   0  0  0  0  0  0  0  0  0  0  0  0
   -1.3048    1.8700   -0.9907 C   0  0  0  0  0  0  0  0  0  0  0  0
   -0.3560    0.0778   -0.2535 H   0  0  0  0  0  0  0  0  0  0  0  0
    1.4775    0.1327   -1.9469 H   0  0  0  0  0  0  0  0  0  0  0  0
   -0.1952    3.7249   -3.6238 H   0  0  0  0  0  0  0  0  0  0  0  0
   -2.0347    3.6726   -1.9309 H   0  0  0  0  0  0  0  0  0  0  0  0
    1.7141    2.0443   -3.8604 N   0  0  0  0  0  0  0  0  0  0  0  0
    2.6517    1.5241   -4.3155 N   0  0  0  0  0  0  0  0  0  0  0  0
    5.9172    0.8182   -5.3625 C   0  0  0  0  0  0  0  0  0  0  0  0
    7.1356    1.4960   -5.3156 C   0  0  0  0  0  0  0  0  0  0  0  0
    8.0238    1.3184   -4.2464 C   0  0  0  0  0  0  0  0  0  0  0  0
    7.6600    0.4378   -3.2158 C   0  0  0  0  0  0  0  0  0  0  0  0
    6.4481   -0.2475   -3.2483 C   0  0  0  0  0  0  0  0  0  0  0  0
    5.5787   -0.0478   -4.3231 C   0  0  0  0  0  0  0  0  0  0  0  0
    5.2361    0.9436   -6.1969 H   0  0  0  0  0  0  0  0  0  0  0  0
    7.4038    2.1689   -6.1262 H   0  0  0  0  0  0  0  0  0  0  0  0
    8.3389    0.2832   -2.3807 H   0  0  0  0  0  0  0  0  0  0  0  0
    6.1776   -0.9422   -2.4604 H   0  0  0  0  0  0  0  0  0  0  0  0
    4.0098   -0.9149   -4.3624 S   0  0  0  0  0  0  0  0  0  0  0  0
    4.1954   -2.1988   -3.6786 O   0  0  0  0  0  0  0  0  0  0  0  0
    3.5177   -0.8800   -5.7427 O   0  0  0  0  0  0  0  0  0  0  0  0
    3.0677   -0.0293   -3.4299 O   0  0  0  0  0  0  0  0  0  0  0  0
    9.3564    2.0291   -4.2175 C   0  0  0  0  0  0  0  0  0  0  0  0
   10.1543    1.3846   -4.6071 H   0  0  0  0  0  0  0  0  0  0  0  0
    9.3407    2.9356   -4.8289 H   0  0  0  0  0  0  0  0  0  0  0  0
    9.6378    2.3103   -3.1983 H   0  0  0  0  0  0  0  0  0  0  0  0
   -2.1010    1.8410   -0.2525 H   0  0  0  0  0  0  0  0  0  0  0  0
  1  7  1  0  0  0  0
  2  1  2  0  0  0  0
  3  2  1  0  0  0  0
  4  3  2  0  0  0  0
  4  5  1  0  0  0  0
  5 10  1  0  0  0  0
  5  6  2  0  0  0  0
  6  1  1  0  0  0  0
  6 31  1  0  0  0  0
  8  2  1  0  0  0  0
  9  4  1  0  0  0  0
 11  3  1  0  0  0  0
 12 11  2  0  0  0  0
 13 14  2  0  0  0  0
 13 18  1  0  0  0  0
 14 15  1  0  0  0  0
 15 27  1  0  0  0  0
 15 16  2  0  0  0  0
 16 21  1  0  0  0  0
 17 16  1  0  0  0  0
 17 22  1  0  0  0  0
 18 17  2  0  0  0  0
 19 13  1  0  0  0  0
 20 14  1  0  0  0  0
 23 18  1  0  0  0  0
 23 24  2  0  0  0  0
 23 26  1  0  0  0  0
 25 23  2  0  0  0  0
 27 30  1  0  0  0  0
 28 27  1  0  0  0  0
 29 27  1  0  0  0  0
M  RAD  2  12   2  26   2
M  END
