Coordinates from ORCA-job Ph-N2-X-OTs-B3LYPG-6-31G_dp-scan-d09-49-n400
 OpenBabel08281821093D

 31 31  0  0  0  0  0  0  0  0999 V2000
    0.0193    1.4289   -0.6275 C   0  0  0  0  0  0  0  0  0  0  0  0
    1.0348    1.5989   -1.5650 C   0  0  0  0  0  0  0  0  0  0  0  0
    0.6845    2.0577   -2.8411 C   0  0  0  0  0  0  0  0  0  0  0  0
   -0.6350    2.3783   -3.1789 C   0  0  0  0  0  0  0  0  0  0  0  0
   -1.6371    2.1727   -2.2354 C   0  0  0  0  0  0  0  0  0  0  0  0
   -1.3105    1.7007   -0.9613 C   0  0  0  0  0  0  0  0  0  0  0  0
    0.2703    1.0760    0.3674 H   0  0  0  0  0  0  0  0  0  0  0  0
    2.0687    1.4068   -1.3135 H   0  0  0  0  0  0  0  0  0  0  0  0
   -0.8566    2.7602   -4.1691 H   0  0  0  0  0  0  0  0  0  0  0  0
   -2.6683    2.3942   -2.4901 H   0  0  0  0  0  0  0  0  0  0  0  0
    1.6648    2.3052   -3.8275 N   0  0  0  0  0  0  0  0  0  0  0  0
    2.6469    1.8469   -4.2562 N   0  0  0  0  0  0  0  0  0  0  0  0
    5.9216    1.0879   -5.2776 C   0  0  0  0  0  0  0  0  0  0  0  0
    7.2054    1.6216   -5.1703 C   0  0  0  0  0  0  0  0  0  0  0  0
    8.1092    1.1499   -4.2087 C   0  0  0  0  0  0  0  0  0  0  0  0
    7.6925    0.1210   -3.3508 C   0  0  0  0  0  0  0  0  0  0  0  0
    6.4133   -0.4223   -3.4439 C   0  0  0  0  0  0  0  0  0  0  0  0
    5.5309    0.0707   -4.4069 C   0  0  0  0  0  0  0  0  0  0  0  0
    5.2284    1.4424   -6.0324 H   0  0  0  0  0  0  0  0  0  0  0  0
    7.5112    2.4141   -5.8487 H   0  0  0  0  0  0  0  0  0  0  0  0
    8.3819   -0.2627   -2.6027 H   0  0  0  0  0  0  0  0  0  0  0  0
    6.0998   -1.2300   -2.7910 H   0  0  0  0  0  0  0  0  0  0  0  0
    3.8727   -0.6017   -4.5142 S   0  0  0  0  0  0  0  0  0  0  0  0
    3.9172   -1.9791   -4.0150 O   0  0  0  0  0  0  0  0  0  0  0  0
    3.3673   -0.3280   -5.8634 O   0  0  0  0  0  0  0  0  0  0  0  0
    3.0484    0.2631   -3.4518 O   0  0  0  0  0  0  0  0  0  0  0  0
    9.5089    1.7095   -4.1187 C   0  0  0  0  0  0  0  0  0  0  0  0
   10.2159    1.0947   -4.6892 H   0  0  0  0  0  0  0  0  0  0  0  0
    9.5609    2.7248   -4.5218 H   0  0  0  0  0  0  0  0  0  0  0  0
    9.8645    1.7352   -3.0840 H   0  0  0  0  0  0  0  0  0  0  0  0
   -2.0925    1.5532   -0.2229 H   0  0  0  0  0  0  0  0  0  0  0  0
  1  7  1  0  0  0  0
  2  8  1  0  0  0  0
  2  1  2  0  0  0  0
  3  2  1  0  0  0  0
  4  3  2  0  0  0  0
  4  5  1  0  0  0  0
  5  6  2  0  0  0  0
  6  1  1  0  0  0  0
  6 31  1  0  0  0  0
  9  4  1  0  0  0  0
 10  5  1  0  0  0  0
 11  3  1  0  0  0  0
 12 11  2  0  0  0  0
 13 14  2  0  0  0  0
 13 18  1  0  0  0  0
 14 15  1  0  0  0  0
 15 27  1  0  0  0  0
 15 16  2  0  0  0  0
 16 21  1  0  0  0  0
 17 16  1  0  0  0  0
 17 22  1  0  0  0  0
 18 17  2  0  0  0  0
 19 13  1  0  0  0  0
 20 14  1  0  0  0  0
 23 18  1  0  0  0  0
 23 24  2  0  0  0  0
 23 26  1  0  0  0  0
 25 23  2  0  0  0  0
 27 30  1  0  0  0  0
 28 27  1  0  0  0  0
 29 27  1  0  0  0  0
M  RAD  2  12   2  26   2
M  END
