Coordinates from ORCA-job Ph-N2-X-OTs-B3LYPG-6-31G_dp-scan-d09-49-n400
 OpenBabel08281821093D

 31 31  0  0  0  0  0  0  0  0999 V2000
    0.0228    0.2197   -1.4309 C   0  0  0  0  0  0  0  0  0  0  0  0
    0.7608    0.9186   -2.3850 C   0  0  0  0  0  0  0  0  0  0  0  0
    0.2241    2.1387   -2.8242 C   0  0  0  0  0  0  0  0  0  0  0  0
   -0.9960    2.6592   -2.3677 C   0  0  0  0  0  0  0  0  0  0  0  0
   -1.6959    1.9415   -1.4068 C   0  0  0  0  0  0  0  0  0  0  0  0
   -1.1856    0.7232   -0.9418 C   0  0  0  0  0  0  0  0  0  0  0  0
    0.4024   -0.7312   -1.0725 H   0  0  0  0  0  0  0  0  0  0  0  0
    1.6981    0.5210   -2.7882 H   0  0  0  0  0  0  0  0  0  0  0  0
   -1.3632    3.6025   -2.7558 H   0  0  0  0  0  0  0  0  0  0  0  0
   -2.6372    2.3232   -1.0272 H   0  0  0  0  0  0  0  0  0  0  0  0
    0.9065    2.8862   -3.7921 N   0  0  0  0  0  0  0  0  0  0  0  0
    1.8211    3.1964   -4.3941 N   0  0  0  0  0  0  0  0  0  0  0  0
    6.3241    1.3710   -5.4076 C   0  0  0  0  0  0  0  0  0  0  0  0
    7.7171    1.3130   -5.3638 C   0  0  0  0  0  0  0  0  0  0  0  0
    8.3855    0.7531   -4.2673 C   0  0  0  0  0  0  0  0  0  0  0  0
    7.6187    0.2467   -3.2066 C   0  0  0  0  0  0  0  0  0  0  0  0
    6.2274    0.2966   -3.2359 C   0  0  0  0  0  0  0  0  0  0  0  0
    5.5859    0.8631   -4.3394 C   0  0  0  0  0  0  0  0  0  0  0  0
    5.8060    1.7907   -6.2630 H   0  0  0  0  0  0  0  0  0  0  0  0
    8.2938    1.7052   -6.1979 H   0  0  0  0  0  0  0  0  0  0  0  0
    8.1197   -0.1948   -2.3481 H   0  0  0  0  0  0  0  0  0  0  0  0
    5.6357   -0.1097   -2.4229 H   0  0  0  0  0  0  0  0  0  0  0  0
    3.7965    0.9705   -4.3756 S   0  0  0  0  0  0  0  0  0  0  0  0
    3.2802   -0.1971   -3.6112 O   0  0  0  0  0  0  0  0  0  0  0  0
    3.3759    1.0717   -5.7853 O   0  0  0  0  0  0  0  0  0  0  0  0
    3.4890    2.2638   -3.5975 O   0  0  0  0  0  0  0  0  0  0  0  0
    9.8931    0.6685   -4.2340 C   0  0  0  0  0  0  0  0  0  0  0  0
   10.2370   -0.3517   -4.4448 H   0  0  0  0  0  0  0  0  0  0  0  0
   10.3487    1.3285   -4.9772 H   0  0  0  0  0  0  0  0  0  0  0  0
   10.2876    0.9432   -3.2501 H   0  0  0  0  0  0  0  0  0  0  0  0
   -1.7406    0.1599   -0.1975 H   0  0  0  0  0  0  0  0  0  0  0  0
  1  7  1  0  0  0  0
  1  6  2  0  0  0  0
  2  1  1  0  0  0  0
  3  2  2  0  0  0  0
  3  4  1  0  0  0  0
  4  5  2  0  0  0  0
  5 10  1  0  0  0  0
  5  6  1  0  0  0  0
  6 31  1  0  0  0  0
  8  2  1  0  0  0  0
  9  4  1  0  0  0  0
 11  3  1  0  0  0  0
 12 11  2  0  0  0  0
 13 14  2  0  0  0  0
 13 18  1  0  0  0  0
 14 15  1  0  0  0  0
 15 27  1  0  0  0  0
 15 16  2  0  0  0  0
 16 21  1  0  0  0  0
 17 16  1  0  0  0  0
 17 22  1  0  0  0  0
 18 17  2  0  0  0  0
 19 13  1  0  0  0  0
 20 14  1  0  0  0  0
 23 18  1  0  0  0  0
 23 24  2  0  0  0  0
 23 26  1  0  0  0  0
 25 23  2  0  0  0  0
 27 30  1  0  0  0  0
 28 27  1  0  0  0  0
 29 27  1  0  0  0  0
M  RAD  2  12   2  26   2
M  END
