Coordinates from ORCA-job Ph-N2-X-OTs-B3LYPG-6-31G_dp-scan-d09-49-n400
 OpenBabel08281821093D

 31 31  0  0  0  0  0  0  0  0999 V2000
   -0.2061    0.3151   -1.3594 C   0  0  0  0  0  0  0  0  0  0  0  0
    0.7032    0.9703   -2.1859 C   0  0  0  0  0  0  0  0  0  0  0  0
    0.2876    2.1806   -2.7635 C   0  0  0  0  0  0  0  0  0  0  0  0
   -0.9826    2.7328   -2.5475 C   0  0  0  0  0  0  0  0  0  0  0  0
   -1.8621    2.0616   -1.7066 C   0  0  0  0  0  0  0  0  0  0  0  0
   -1.4728    0.8547   -1.1160 C   0  0  0  0  0  0  0  0  0  0  0  0
    0.0828   -0.6270   -0.9061 H   0  0  0  0  0  0  0  0  0  0  0  0
    1.6860    0.5599   -2.3905 H   0  0  0  0  0  0  0  0  0  0  0  0
   -1.2534    3.6662   -3.0280 H   0  0  0  0  0  0  0  0  0  0  0  0
   -2.8477    2.4726   -1.5166 H   0  0  0  0  0  0  0  0  0  0  0  0
    1.1399    2.8916   -3.6211 N   0  0  0  0  0  0  0  0  0  0  0  0
    2.1737    3.0726   -4.0770 N   0  0  0  0  0  0  0  0  0  0  0  0
    6.2398    1.3725   -5.2750 C   0  0  0  0  0  0  0  0  0  0  0  0
    7.6308    1.4262   -5.3526 C   0  0  0  0  0  0  0  0  0  0  0  0
    8.4356    0.8196   -4.3782 C   0  0  0  0  0  0  0  0  0  0  0  0
    7.8077    0.1522   -3.3166 C   0  0  0  0  0  0  0  0  0  0  0  0
    6.4186    0.0889   -3.2257 C   0  0  0  0  0  0  0  0  0  0  0  0
    5.6405    0.7045   -4.2070 C   0  0  0  0  0  0  0  0  0  0  0  0
    5.6176    1.8290   -6.0370 H   0  0  0  0  0  0  0  0  0  0  0  0
    8.0994    1.9434   -6.1865 H   0  0  0  0  0  0  0  0  0  0  0  0
    8.4150   -0.3269   -2.5526 H   0  0  0  0  0  0  0  0  0  0  0  0
    5.9342   -0.4399   -2.4119 H   0  0  0  0  0  0  0  0  0  0  0  0
    3.8524    0.6638   -4.0780 S   0  0  0  0  0  0  0  0  0  0  0  0
    3.4950   -0.5756   -3.3551 O   0  0  0  0  0  0  0  0  0  0  0  0
    3.2962    0.8487   -5.4322 O   0  0  0  0  0  0  0  0  0  0  0  0
    3.5118    1.8822   -3.1780 O   0  0  0  0  0  0  0  0  0  0  0  0
    9.9418    0.8537   -4.4864 C   0  0  0  0  0  0  0  0  0  0  0  0
   10.3193   -0.0258   -5.0239 H   0  0  0  0  0  0  0  0  0  0  0  0
   10.2849    1.7385   -5.0310 H   0  0  0  0  0  0  0  0  0  0  0  0
   10.4152    0.8572   -3.5001 H   0  0  0  0  0  0  0  0  0  0  0  0
   -2.1652    0.3281   -0.4660 H   0  0  0  0  0  0  0  0  0  0  0  0
  1  6  1  0  0  0  0
  1  7  1  0  0  0  0
  2  1  2  0  0  0  0
  3  4  2  0  0  0  0
  3  2  1  0  0  0  0
  4  5  1  0  0  0  0
  5 10  1  0  0  0  0
  5  6  2  0  0  0  0
  6 31  1  0  0  0  0
  8  2  1  0  0  0  0
  9  4  1  0  0  0  0
 11  3  1  0  0  0  0
 12 11  2  0  0  0  0
 13 18  1  0  0  0  0
 14 13  2  0  0  0  0
 14 15  1  0  0  0  0
 15 16  2  0  0  0  0
 16 17  1  0  0  0  0
 16 21  1  0  0  0  0
 17 22  1  0  0  0  0
 18 23  1  0  0  0  0
 18 17  2  0  0  0  0
 19 13  1  0  0  0  0
 20 14  1  0  0  0  0
 23 24  2  0  0  0  0
 23 26  1  0  0  0  0
 25 23  2  0  0  0  0
 27 15  1  0  0  0  0
 27 30  1  0  0  0  0
 28 27  1  0  0  0  0
 29 27  1  0  0  0  0
M  RAD  2  12   2  26   2
M  END
