Coordinates from ORCA-job Ph-N2-X-OTs-B3LYPG-6-31G_dp-scan-d09-49-n400
 OpenBabel08281821093D

 31 31  0  0  0  0  0  0  0  0999 V2000
   -0.1156    1.1435   -0.7743 C   0  0  0  0  0  0  0  0  0  0  0  0
    0.8958    1.1975   -1.7296 C   0  0  0  0  0  0  0  0  0  0  0  0
    0.6773    1.9756   -2.8770 C   0  0  0  0  0  0  0  0  0  0  0  0
   -0.5070    2.7004   -3.0676 C   0  0  0  0  0  0  0  0  0  0  0  0
   -1.5107    2.6164   -2.1085 C   0  0  0  0  0  0  0  0  0  0  0  0
   -1.3134    1.8395   -0.9632 C   0  0  0  0  0  0  0  0  0  0  0  0
    0.0331    0.5496    0.1218 H   0  0  0  0  0  0  0  0  0  0  0  0
    1.8291    0.6690   -1.6020 H   0  0  0  0  0  0  0  0  0  0  0  0
   -0.6242    3.3013   -3.9628 H   0  0  0  0  0  0  0  0  0  0  0  0
   -2.4394    3.1592   -2.2493 H   0  0  0  0  0  0  0  0  0  0  0  0
    1.6462    2.1136   -3.8867 N   0  0  0  0  0  0  0  0  0  0  0  0
    2.6045    1.6281   -4.3341 N   0  0  0  0  0  0  0  0  0  0  0  0
    5.9046    0.9769   -5.2910 C   0  0  0  0  0  0  0  0  0  0  0  0
    7.1521    1.5955   -5.2118 C   0  0  0  0  0  0  0  0  0  0  0  0
    8.0758    1.2408   -4.2194 C   0  0  0  0  0  0  0  0  0  0  0  0
    7.7172    0.2430   -3.3003 C   0  0  0  0  0  0  0  0  0  0  0  0
    6.4748   -0.3834   -3.3648 C   0  0  0  0  0  0  0  0  0  0  0  0
    5.5709   -0.0070   -4.3604 C   0  0  0  0  0  0  0  0  0  0  0  0
    5.1968    1.2385   -6.0698 H   0  0  0  0  0  0  0  0  0  0  0  0
    7.4152    2.3620   -5.9365 H   0  0  0  0  0  0  0  0  0  0  0  0
    8.4241   -0.0499   -2.5278 H   0  0  0  0  0  0  0  0  0  0  0  0
    6.2059   -1.1681   -2.6658 H   0  0  0  0  0  0  0  0  0  0  0  0
    3.9608   -0.7937   -4.4355 S   0  0  0  0  0  0  0  0  0  0  0  0
    4.0935   -2.1277   -3.8412 O   0  0  0  0  0  0  0  0  0  0  0  0
    3.4603   -0.6493   -5.8063 O   0  0  0  0  0  0  0  0  0  0  0  0
    3.0687    0.0813   -3.4456 O   0  0  0  0  0  0  0  0  0  0  0  0
    9.4381    1.8906   -4.1582 C   0  0  0  0  0  0  0  0  0  0  0  0
   10.1964    1.2614   -4.6404 H   0  0  0  0  0  0  0  0  0  0  0  0
    9.4432    2.8576   -4.6684 H   0  0  0  0  0  0  0  0  0  0  0  0
    9.7600    2.0489   -3.1243 H   0  0  0  0  0  0  0  0  0  0  0  0
   -2.0948    1.7800   -0.2112 H   0  0  0  0  0  0  0  0  0  0  0  0
  1  7  1  0  0  0  0
  2  8  1  0  0  0  0
  2  1  2  0  0  0  0
  3  2  1  0  0  0  0
  4  3  2  0  0  0  0
  4  5  1  0  0  0  0
  5  6  2  0  0  0  0
  6  1  1  0  0  0  0
  6 31  1  0  0  0  0
  9  4  1  0  0  0  0
 10  5  1  0  0  0  0
 11  3  1  0  0  0  0
 12 11  2  0  0  0  0
 13 14  2  0  0  0  0
 13 18  1  0  0  0  0
 14 15  1  0  0  0  0
 15 27  1  0  0  0  0
 15 16  2  0  0  0  0
 16 21  1  0  0  0  0
 17 16  1  0  0  0  0
 17 22  1  0  0  0  0
 18 17  2  0  0  0  0
 19 13  1  0  0  0  0
 20 14  1  0  0  0  0
 23 18  1  0  0  0  0
 23 24  2  0  0  0  0
 23 26  1  0  0  0  0
 25 23  2  0  0  0  0
 27 30  1  0  0  0  0
 28 27  1  0  0  0  0
 29 27  1  0  0  0  0
M  RAD  2  12   2  26   2
M  END
