Coordinates from ORCA-job Ph-N2-X-OTs-B3LYPG-6-31G_dp-scan-d09-49-n400
 OpenBabel08281821093D

 31 31  0  0  0  0  0  0  0  0999 V2000
   -0.5414    0.4613   -1.4007 C   0  0  0  0  0  0  0  0  0  0  0  0
    0.6588    1.0219   -1.8261 C   0  0  0  0  0  0  0  0  0  0  0  0
    0.5913    2.2133   -2.5669 C   0  0  0  0  0  0  0  0  0  0  0  0
   -0.6199    2.8454   -2.8780 C   0  0  0  0  0  0  0  0  0  0  0  0
   -1.8035    2.2611   -2.4423 C   0  0  0  0  0  0  0  0  0  0  0  0
   -1.7620    1.0722   -1.7066 C   0  0  0  0  0  0  0  0  0  0  0  0
   -0.5211   -0.4626   -0.8324 H   0  0  0  0  0  0  0  0  0  0  0  0
    1.6246    0.5805   -1.6131 H   0  0  0  0  0  0  0  0  0  0  0  0
   -0.6150    3.7659   -3.4509 H   0  0  0  0  0  0  0  0  0  0  0  0
   -2.7542    2.7281   -2.6757 H   0  0  0  0  0  0  0  0  0  0  0  0
    1.7595    2.8305   -3.0331 N   0  0  0  0  0  0  0  0  0  0  0  0
    2.8995    2.7980   -3.1641 N   0  0  0  0  0  0  0  0  0  0  0  0
    5.9312    1.1965   -5.0298 C   0  0  0  0  0  0  0  0  0  0  0  0
    7.2591    1.4626   -5.3618 C   0  0  0  0  0  0  0  0  0  0  0  0
    8.3139    0.9761   -4.5776 C   0  0  0  0  0  0  0  0  0  0  0  0
    8.0033    0.2105   -3.4441 C   0  0  0  0  0  0  0  0  0  0  0  0
    6.6817   -0.0656   -3.1007 C   0  0  0  0  0  0  0  0  0  0  0  0
    5.6491    0.4349   -3.8958 C   0  0  0  0  0  0  0  0  0  0  0  0
    5.1153    1.5600   -5.6442 H   0  0  0  0  0  0  0  0  0  0  0  0
    7.4804    2.0529   -6.2478 H   0  0  0  0  0  0  0  0  0  0  0  0
    8.8080   -0.1781   -2.8253 H   0  0  0  0  0  0  0  0  0  0  0  0
    6.4458   -0.6715   -2.2323 H   0  0  0  0  0  0  0  0  0  0  0  0
    3.9452    0.1098   -3.4388 S   0  0  0  0  0  0  0  0  0  0  0  0
    3.8988   -1.2316   -2.8387 O   0  0  0  0  0  0  0  0  0  0  0  0
    3.1105    0.3860   -4.6241 O   0  0  0  0  0  0  0  0  0  0  0  0
    3.6321    1.1572   -2.3225 O   0  0  0  0  0  0  0  0  0  0  0  0
    9.7502    1.2407   -4.9629 C   0  0  0  0  0  0  0  0  0  0  0  0
   10.1214    0.4730   -5.6539 H   0  0  0  0  0  0  0  0  0  0  0  0
    9.8584    2.2071   -5.4648 H   0  0  0  0  0  0  0  0  0  0  0  0
   10.4070    1.2364   -4.0879 H   0  0  0  0  0  0  0  0  0  0  0  0
   -2.6885    0.6183   -1.3690 H   0  0  0  0  0  0  0  0  0  0  0  0
  1  7  1  0  0  0  0
  2  8  1  0  0  0  0
  2  1  2  0  0  0  0
  3  2  1  0  0  0  0
  4  3  2  0  0  0  0
  4  5  1  0  0  0  0
  5  6  2  0  0  0  0
  6  1  1  0  0  0  0
  6 31  1  0  0  0  0
  9  4  1  0  0  0  0
 10  5  1  0  0  0  0
 11  3  1  0  0  0  0
 12 11  2  0  0  0  0
 13 18  1  0  0  0  0
 14 13  2  0  0  0  0
 14 15  1  0  0  0  0
 15 16  2  0  0  0  0
 16 17  1  0  0  0  0
 16 21  1  0  0  0  0
 17 22  1  0  0  0  0
 18 23  1  0  0  0  0
 18 17  2  0  0  0  0
 19 13  1  0  0  0  0
 20 14  1  0  0  0  0
 23 24  2  0  0  0  0
 23 26  1  0  0  0  0
 25 23  2  0  0  0  0
 27 15  1  0  0  0  0
 27 30  1  0  0  0  0
 28 27  1  0  0  0  0
 29 27  1  0  0  0  0
M  RAD  2  12   2  26   2
M  END
