Coordinates from ORCA-job Ph-N2-X-OTs-B3LYPG-6-31G_dp-scan-d09-49-n400
 OpenBabel08281821093D

 31 31  0  0  0  0  0  0  0  0999 V2000
    0.3363   -0.0770   -1.9647 C   0  0  0  0  0  0  0  0  0  0  0  0
    0.9370    0.9454   -2.7128 C   0  0  0  0  0  0  0  0  0  0  0  0
    0.2357    2.1619   -2.6777 C   0  0  0  0  0  0  0  0  0  0  0  0
   -0.9684    2.4164   -1.9886 C   0  0  0  0  0  0  0  0  0  0  0  0
   -1.5076    1.3653   -1.2691 C   0  0  0  0  0  0  0  0  0  0  0  0
   -0.8518    0.1206   -1.2604 C   0  0  0  0  0  0  0  0  0  0  0  0
    0.8159   -1.0517   -1.9409 H   0  0  0  0  0  0  0  0  0  0  0  0
    1.9749    0.7967   -3.3658 H   0  0  0  0  0  0  0  0  0  0  0  0
   -1.4398    3.3930   -2.0243 H   0  0  0  0  0  0  0  0  0  0  0  0
   -2.4324    1.5027   -0.7197 H   0  0  0  0  0  0  0  0  0  0  0  0
    0.7858    3.2120   -3.4038 N   0  0  0  0  0  0  0  0  0  0  0  0
    1.3691    3.9591   -3.9961 N   0  0  0  0  0  0  0  0  0  0  0  0
    6.2383    0.7125   -5.4809 C   0  0  0  0  0  0  0  0  0  0  0  0
    7.5725    0.3488   -5.3017 C   0  0  0  0  0  0  0  0  0  0  0  0
    8.2330    0.5889   -4.0897 C   0  0  0  0  0  0  0  0  0  0  0  0
    7.5215    1.2182   -3.0572 C   0  0  0  0  0  0  0  0  0  0  0  0
    6.1880    1.5857   -3.2211 C   0  0  0  0  0  0  0  0  0  0  0  0
    5.5496    1.3257   -4.4349 C   0  0  0  0  0  0  0  0  0  0  0  0
    5.7314    0.5432   -6.4248 H   0  0  0  0  0  0  0  0  0  0  0  0
    8.1116   -0.1231   -6.1197 H   0  0  0  0  0  0  0  0  0  0  0  0
    8.0221    1.4298   -2.1151 H   0  0  0  0  0  0  0  0  0  0  0  0
    5.6464    2.0903   -2.4282 H   0  0  0  0  0  0  0  0  0  0  0  0
    3.8203    1.7518   -4.6529 S   0  0  0  0  0  0  0  0  0  0  0  0
    3.0556    0.5722   -4.0544 O   0  0  0  0  0  0  0  0  0  0  0  0
    3.5820    1.9096   -6.0968 O   0  0  0  0  0  0  0  0  0  0  0  0
    3.5863    2.9721   -3.8170 O   0  0  0  0  0  0  0  0  0  0  0  0
    9.6701    0.1675   -3.8914 C   0  0  0  0  0  0  0  0  0  0  0  0
    9.7302   -0.8068   -3.3899 H   0  0  0  0  0  0  0  0  0  0  0  0
   10.1956    0.0760   -4.8461 H   0  0  0  0  0  0  0  0  0  0  0  0
   10.2163    0.8843   -3.2701 H   0  0  0  0  0  0  0  0  0  0  0  0
   -1.2861   -0.7002   -0.6963 H   0  0  0  0  0  0  0  0  0  0  0  0
  1  7  1  0  0  0  0
  1  6  2  0  0  0  0
  2  3  2  0  0  0  0
  2  1  1  0  0  0  0
  3  4  1  0  0  0  0
  4  5  2  0  0  0  0
  5  6  1  0  0  0  0
  5 10  1  0  0  0  0
  6 31  1  0  0  0  0
  8  2  1  0  0  0  0
  9  4  1  0  0  0  0
 11  3  1  0  0  0  0
 12 11  1  0  0  0  0
 13 14  2  0  0  0  0
 13 18  1  0  0  0  0
 14 15  1  0  0  0  0
 15 27  1  0  0  0  0
 15 16  2  0  0  0  0
 16 21  1  0  0  0  0
 17 16  1  0  0  0  0
 17 22  1  0  0  0  0
 18 17  2  0  0  0  0
 19 13  1  0  0  0  0
 20 14  1  0  0  0  0
 23 18  1  0  0  0  0
 23 24  2  0  0  0  0
 23 26  1  0  0  0  0
 25 23  2  0  0  0  0
 27 28  1  0  0  0  0
 27 30  1  0  0  0  0
 29 27  1  0  0  0  0
M  RAD  3  11   2  12   3  26   2
M  END
