Coordinates from ORCA-job Ph-N2-X-OTs-B3LYPG-6-31G_dp-scan-d09-49-n400
 OpenBabel08281821093D

 31 31  0  0  0  0  0  0  0  0999 V2000
   -0.0521    1.2875   -0.6919 C   0  0  0  0  0  0  0  0  0  0  0  0
    0.9693    1.3981   -1.6316 C   0  0  0  0  0  0  0  0  0  0  0  0
    0.6755    2.0176   -2.8547 C   0  0  0  0  0  0  0  0  0  0  0  0
   -0.5920    2.5434   -3.1353 C   0  0  0  0  0  0  0  0  0  0  0  0
   -1.6037    2.3988   -2.1914 C   0  0  0  0  0  0  0  0  0  0  0  0
   -1.3330    1.7731   -0.9712 C   0  0  0  0  0  0  0  0  0  0  0  0
    0.1546    0.8140    0.2622 H   0  0  0  0  0  0  0  0  0  0  0  0
    1.9664    1.0360   -1.4277 H   0  0  0  0  0  0  0  0  0  0  0  0
   -0.7665    3.0362   -4.0852 H   0  0  0  0  0  0  0  0  0  0  0  0
   -2.5962    2.7829   -2.4021 H   0  0  0  0  0  0  0  0  0  0  0  0
    1.6574    2.2077   -3.8468 N   0  0  0  0  0  0  0  0  0  0  0  0
    2.6329    1.7410   -4.2778 N   0  0  0  0  0  0  0  0  0  0  0  0
    5.9106    1.0422   -5.2712 C   0  0  0  0  0  0  0  0  0  0  0  0
    7.1781    1.6173   -5.1837 C   0  0  0  0  0  0  0  0  0  0  0  0
    8.1024    1.1922   -4.2200 C   0  0  0  0  0  0  0  0  0  0  0  0
    7.7237    0.1680   -3.3391 C   0  0  0  0  0  0  0  0  0  0  0  0
    6.4610   -0.4156   -3.4121 C   0  0  0  0  0  0  0  0  0  0  0  0
    5.5570    0.0310   -4.3779 C   0  0  0  0  0  0  0  0  0  0  0  0
    5.2019    1.3596   -6.0281 H   0  0  0  0  0  0  0  0  0  0  0  0
    7.4554    2.4053   -5.8793 H   0  0  0  0  0  0  0  0  0  0  0  0
    8.4302   -0.1798   -2.5894 H   0  0  0  0  0  0  0  0  0  0  0  0
    6.1765   -1.2200   -2.7421 H   0  0  0  0  0  0  0  0  0  0  0  0
    3.9200   -0.6964   -4.4612 S   0  0  0  0  0  0  0  0  0  0  0  0
    4.0123   -2.0567   -3.9218 O   0  0  0  0  0  0  0  0  0  0  0  0
    3.4071   -0.4814   -5.8184 O   0  0  0  0  0  0  0  0  0  0  0  0
    3.0705    0.1728   -3.4270 O   0  0  0  0  0  0  0  0  0  0  0  0
    9.4850    1.7964   -4.1506 C   0  0  0  0  0  0  0  0  0  0  0  0
   10.2143    1.1729   -4.6823 H   0  0  0  0  0  0  0  0  0  0  0  0
    9.5105    2.7897   -4.6068 H   0  0  0  0  0  0  0  0  0  0  0  0
    9.8310    1.8873   -3.1163 H   0  0  0  0  0  0  0  0  0  0  0  0
   -2.1210    1.6701   -0.2312 H   0  0  0  0  0  0  0  0  0  0  0  0
  1  7  1  0  0  0  0
  2  8  1  0  0  0  0
  2  1  2  0  0  0  0
  3  2  1  0  0  0  0
  4  3  2  0  0  0  0
  4  5  1  0  0  0  0
  5  6  2  0  0  0  0
  6  1  1  0  0  0  0
  6 31  1  0  0  0  0
  9  4  1  0  0  0  0
 10  5  1  0  0  0  0
 11  3  1  0  0  0  0
 12 11  2  0  0  0  0
 13 14  2  0  0  0  0
 13 18  1  0  0  0  0
 14 15  1  0  0  0  0
 15 27  1  0  0  0  0
 15 16  2  0  0  0  0
 16 21  1  0  0  0  0
 17 16  1  0  0  0  0
 17 22  1  0  0  0  0
 18 17  2  0  0  0  0
 19 13  1  0  0  0  0
 20 14  1  0  0  0  0
 23 18  1  0  0  0  0
 23 24  2  0  0  0  0
 23 26  1  0  0  0  0
 25 23  2  0  0  0  0
 27 30  1  0  0  0  0
 28 27  1  0  0  0  0
 29 27  1  0  0  0  0
M  RAD  2  12   2  26   2
M  END
