Coordinates from ORCA-job Ph-N2-X-OTs-B3LYPG-6-31G_dp-scan-d09-49-n400
 OpenBabel08281821093D

 31 31  0  0  0  0  0  0  0  0999 V2000
    0.7969   -0.0682   -2.1931 C   0  0  0  0  0  0  0  0  0  0  0  0
    1.1150    1.0251   -3.0343 C   0  0  0  0  0  0  0  0  0  0  0  0
    0.4038    2.1756   -2.6466 C   0  0  0  0  0  0  0  0  0  0  0  0
   -0.5243    2.3379   -1.5861 C   0  0  0  0  0  0  0  0  0  0  0  0
   -0.7689    1.2170   -0.8215 C   0  0  0  0  0  0  0  0  0  0  0  0
   -0.1033    0.0113   -1.1333 C   0  0  0  0  0  0  0  0  0  0  0  0
    1.2792   -1.0254   -2.3836 H   0  0  0  0  0  0  0  0  0  0  0  0
    2.1939    0.9205   -4.2953 H   0  0  0  0  0  0  0  0  0  0  0  0
   -1.0086    3.2897   -1.3903 H   0  0  0  0  0  0  0  0  0  0  0  0
   -1.4650    1.2635    0.0095 H   0  0  0  0  0  0  0  0  0  0  0  0
    0.6388    3.3068   -3.4190 N   0  0  0  0  0  0  0  0  0  0  0  0
    0.8599    4.1909   -4.0620 N   0  0  0  0  0  0  0  0  0  0  0  0
    6.2009    0.7027   -5.5930 C   0  0  0  0  0  0  0  0  0  0  0  0
    7.4284    0.2458   -5.1163 C   0  0  0  0  0  0  0  0  0  0  0  0
    7.8415    0.5105   -3.8030 C   0  0  0  0  0  0  0  0  0  0  0  0
    6.9921    1.2586   -2.9747 C   0  0  0  0  0  0  0  0  0  0  0  0
    5.7608    1.7207   -3.4344 C   0  0  0  0  0  0  0  0  0  0  0  0
    5.3708    1.4348   -4.7436 C   0  0  0  0  0  0  0  0  0  0  0  0
    5.8919    0.5133   -6.6149 H   0  0  0  0  0  0  0  0  0  0  0  0
    8.0807   -0.3186   -5.7778 H   0  0  0  0  0  0  0  0  0  0  0  0
    7.3025    1.4886   -1.9587 H   0  0  0  0  0  0  0  0  0  0  0  0
    5.1117    2.3128   -2.7986 H   0  0  0  0  0  0  0  0  0  0  0  0
    3.7840    2.0048   -5.3451 S   0  0  0  0  0  0  0  0  0  0  0  0
    2.8248    0.7745   -5.0707 O   0  0  0  0  0  0  0  0  0  0  0  0
    3.8953    2.1948   -6.7894 O   0  0  0  0  0  0  0  0  0  0  0  0
    3.3638    3.1334   -4.4931 O   0  0  0  0  0  0  0  0  0  0  0  0
    9.1614   -0.0092   -3.2845 C   0  0  0  0  0  0  0  0  0  0  0  0
    9.0225   -0.9374   -2.7161 H   0  0  0  0  0  0  0  0  0  0  0  0
    9.8548   -0.2266   -4.1016 H   0  0  0  0  0  0  0  0  0  0  0  0
    9.6400    0.7117   -2.6138 H   0  0  0  0  0  0  0  0  0  0  0  0
   -0.3058   -0.8690   -0.5271 H   0  0  0  0  0  0  0  0  0  0  0  0
  1  6  2  0  0  0  0
  2  3  2  0  0  0  0
  2  1  1  0  0  0  0
  3  4  1  0  0  0  0
  4  9  1  0  0  0  0
  4  5  2  0  0  0  0
  5 10  1  0  0  0  0
  6  5  1  0  0  0  0
  6 31  1  0  0  0  0
  7  1  1  0  0  0  0
 11  3  1  0  0  0  0
 12 11  1  0  0  0  0
 13 14  2  0  0  0  0
 13 18  1  0  0  0  0
 14 15  1  0  0  0  0
 15 27  1  0  0  0  0
 15 16  2  0  0  0  0
 16 21  1  0  0  0  0
 17 16  1  0  0  0  0
 17 22  1  0  0  0  0
 18 17  2  0  0  0  0
 19 13  1  0  0  0  0
 20 14  1  0  0  0  0
 23 24  1  0  0  0  0
 23 18  1  0  0  0  0
 23 26  2  0  0  0  0
 24  8  1  0  0  0  0
 25 23  2  0  0  0  0
 27 28  1  0  0  0  0
 27 30  1  0  0  0  0
 29 27  1  0  0  0  0
M  RAD  3   2   2  11   2  12   3
M  END
