Coordinates from ORCA-job Ph-N2-X-OTs-B3LYPG-6-31G_dp-scan-d09-49-n400
 OpenBabel08281821093D

 31 32  0  0  0  0  0  0  0  0999 V2000
    0.0335    1.4513   -0.6184 C   0  0  0  0  0  0  0  0  0  0  0  0
    1.0473    1.6312   -1.5559 C   0  0  0  0  0  0  0  0  0  0  0  0
    0.6905    2.0642   -2.8389 C   0  0  0  0  0  0  0  0  0  0  0  0
   -0.6345    2.3516   -3.1839 C   0  0  0  0  0  0  0  0  0  0  0  0
   -1.6343    2.1362   -2.2399 C   0  0  0  0  0  0  0  0  0  0  0  0
   -1.3011    1.6886   -0.9589 C   0  0  0  0  0  0  0  0  0  0  0  0
    0.2899    1.1178    0.3819 H   0  0  0  0  0  0  0  0  0  0  0  0
    2.0847    1.4669   -1.2983 H   0  0  0  0  0  0  0  0  0  0  0  0
   -0.8623    2.7157   -4.1794 H   0  0  0  0  0  0  0  0  0  0  0  0
   -2.6695    2.3312   -2.5003 H   0  0  0  0  0  0  0  0  0  0  0  0
    1.6696    2.3223   -3.8253 N   0  0  0  0  0  0  0  0  0  0  0  0
    2.6506    1.8607   -4.2551 N   0  0  0  0  0  0  0  0  0  0  0  0
    5.9219    1.0931   -5.2815 C   0  0  0  0  0  0  0  0  0  0  0  0
    7.2076    1.6210   -5.1692 C   0  0  0  0  0  0  0  0  0  0  0  0
    8.1061    1.1442   -4.2052 C   0  0  0  0  0  0  0  0  0  0  0  0
    7.6822    0.1161   -3.3500 C   0  0  0  0  0  0  0  0  0  0  0  0
    6.4010   -0.4217   -3.4481 C   0  0  0  0  0  0  0  0  0  0  0  0
    5.5241    0.0764   -4.4134 C   0  0  0  0  0  0  0  0  0  0  0  0
    5.2327    1.4518   -6.0380 H   0  0  0  0  0  0  0  0  0  0  0  0
    7.5191    2.4132   -5.8456 H   0  0  0  0  0  0  0  0  0  0  0  0
    8.3673   -0.2715   -2.6000 H   0  0  0  0  0  0  0  0  0  0  0  0
    6.0819   -1.2289   -2.7972 H   0  0  0  0  0  0  0  0  0  0  0  0
    3.8635   -0.5885   -4.5272 S   0  0  0  0  0  0  0  0  0  0  0  0
    3.8996   -1.9673   -4.0316 O   0  0  0  0  0  0  0  0  0  0  0  0
    3.3616   -0.3072   -5.8759 O   0  0  0  0  0  0  0  0  0  0  0  0
    3.0401    0.2764   -3.4620 O   0  0  0  0  0  0  0  0  0  0  0  0
    9.5079    1.6977   -4.1099 C   0  0  0  0  0  0  0  0  0  0  0  0
   10.2127    1.0852   -4.6854 H   0  0  0  0  0  0  0  0  0  0  0  0
    9.5640    2.7162   -4.5043 H   0  0  0  0  0  0  0  0  0  0  0  0
    9.8631    1.7133   -3.0749 H   0  0  0  0  0  0  0  0  0  0  0  0
   -2.0816    1.5338   -0.2205 H   0  0  0  0  0  0  0  0  0  0  0  0
  1  7  1  0  0  0  0
  2  8  1  0  0  0  0
  2  1  2  0  0  0  0
  3  2  1  0  0  0  0
  4  3  2  0  0  0  0
  4  5  1  0  0  0  0
  5  6  2  0  0  0  0
  6  1  1  0  0  0  0
  6 31  1  0  0  0  0
  9  4  1  0  0  0  0
 10  5  1  0  0  0  0
 11  3  1  0  0  0  0
 12 11  1  0  0  0  0
 12 26  1  0  0  0  0
 13 14  2  0  0  0  0
 13 18  1  0  0  0  0
 14 15  1  0  0  0  0
 15 27  1  0  0  0  0
 15 16  2  0  0  0  0
 16 21  1  0  0  0  0
 17 16  1  0  0  0  0
 17 22  1  0  0  0  0
 18 17  2  0  0  0  0
 19 13  1  0  0  0  0
 20 14  1  0  0  0  0
 23 18  1  0  0  0  0
 23 24  2  0  0  0  0
 23 26  1  0  0  0  0
 25 23  2  0  0  0  0
 27 30  1  0  0  0  0
 28 27  1  0  0  0  0
 29 27  1  0  0  0  0
M  RAD  2  11   2  12   2
M  END
