Coordinates from ORCA-job Ph-N2-X-OTs-B3LYPG-6-31G_dp-scan-d09-49-n400
 OpenBabel08281821093D

 31 31  0  0  0  0  0  0  0  0999 V2000
   -0.5726    0.6898   -1.1562 C   0  0  0  0  0  0  0  0  0  0  0  0
    0.6037    0.9801   -1.8415 C   0  0  0  0  0  0  0  0  0  0  0  0
    0.6000    2.0890   -2.7041 C   0  0  0  0  0  0  0  0  0  0  0  0
   -0.5314    2.8974   -2.8820 C   0  0  0  0  0  0  0  0  0  0  0  0
   -1.6939    2.5845   -2.1865 C   0  0  0  0  0  0  0  0  0  0  0  0
   -1.7126    1.4823   -1.3262 C   0  0  0  0  0  0  0  0  0  0  0  0
   -0.5983   -0.1644   -0.4873 H   0  0  0  0  0  0  0  0  0  0  0  0
    1.5039    0.3875   -1.7397 H   0  0  0  0  0  0  0  0  0  0  0  0
   -0.4825    3.7435   -3.5587 H   0  0  0  0  0  0  0  0  0  0  0  0
   -2.5817    3.1949   -2.3149 H   0  0  0  0  0  0  0  0  0  0  0  0
    1.7369    2.4501   -3.4442 N   0  0  0  0  0  0  0  0  0  0  0  0
    2.8199    2.1646   -3.7317 N   0  0  0  0  0  0  0  0  0  0  0  0
    5.9508    1.0276   -5.1702 C   0  0  0  0  0  0  0  0  0  0  0  0
    7.2515    1.5035   -5.3343 C   0  0  0  0  0  0  0  0  0  0  0  0
    8.2735    1.1414   -4.4467 C   0  0  0  0  0  0  0  0  0  0  0  0
    7.9586    0.2842   -3.3812 C   0  0  0  0  0  0  0  0  0  0  0  0
    6.6647   -0.1994   -3.2038 C   0  0  0  0  0  0  0  0  0  0  0  0
    5.6635    0.1806   -4.1000 C   0  0  0  0  0  0  0  0  0  0  0  0
    5.1640    1.2945   -5.8669 H   0  0  0  0  0  0  0  0  0  0  0  0
    7.4783    2.1618   -6.1694 H   0  0  0  0  0  0  0  0  0  0  0  0
    8.7395   -0.0120   -2.6851 H   0  0  0  0  0  0  0  0  0  0  0  0
    6.4271   -0.8759   -2.3898 H   0  0  0  0  0  0  0  0  0  0  0  0
    3.9898   -0.4184   -3.8629 S   0  0  0  0  0  0  0  0  0  0  0  0
    4.0781   -1.7327   -3.2154 O   0  0  0  0  0  0  0  0  0  0  0  0
    3.2887   -0.2869   -5.1487 O   0  0  0  0  0  0  0  0  0  0  0  0
    3.3682    0.5843   -2.8149 O   0  0  0  0  0  0  0  0  0  0  0  0
    9.6874    1.6324   -4.6493 C   0  0  0  0  0  0  0  0  0  0  0  0
   10.2889    0.8905   -5.1898 H   0  0  0  0  0  0  0  0  0  0  0  0
    9.7100    2.5580   -5.2318 H   0  0  0  0  0  0  0  0  0  0  0  0
   10.1870    1.8191   -3.6938 H   0  0  0  0  0  0  0  0  0  0  0  0
   -2.6217    1.2391   -0.7847 H   0  0  0  0  0  0  0  0  0  0  0  0
  1  7  1  0  0  0  0
  2  8  1  0  0  0  0
  2  1  2  0  0  0  0
  3  2  1  0  0  0  0
  4  3  2  0  0  0  0
  4  5  1  0  0  0  0
  5  6  2  0  0  0  0
  6  1  1  0  0  0  0
  6 31  1  0  0  0  0
  9  4  1  0  0  0  0
 10  5  1  0  0  0  0
 11  3  1  0  0  0  0
 12 11  2  0  0  0  0
 13 18  1  0  0  0  0
 14 13  2  0  0  0  0
 14 15  1  0  0  0  0
 15 16  2  0  0  0  0
 16 17  1  0  0  0  0
 16 21  1  0  0  0  0
 17 22  1  0  0  0  0
 18 23  1  0  0  0  0
 18 17  2  0  0  0  0
 19 13  1  0  0  0  0
 20 14  1  0  0  0  0
 23 24  2  0  0  0  0
 23 26  1  0  0  0  0
 25 23  2  0  0  0  0
 27 15  1  0  0  0  0
 27 30  1  0  0  0  0
 28 27  1  0  0  0  0
 29 27  1  0  0  0  0
M  RAD  2  12   2  26   2
M  END
