Coordinates from ORCA-job Ph-N2-X-OTs-B3LYPG-6-31G_dp-scan-d09-49-n400
 OpenBabel08281821093D

 31 31  0  0  0  0  0  0  0  0999 V2000
    0.1126    0.1928   -1.4508 C   0  0  0  0  0  0  0  0  0  0  0  0
    0.7936    0.9123   -2.4320 C   0  0  0  0  0  0  0  0  0  0  0  0
    0.2174    2.1302   -2.8250 C   0  0  0  0  0  0  0  0  0  0  0  0
   -0.9847    2.6316   -2.3030 C   0  0  0  0  0  0  0  0  0  0  0  0
   -1.6255    1.8916   -1.3184 C   0  0  0  0  0  0  0  0  0  0  0  0
   -1.0760    0.6742   -0.8959 C   0  0  0  0  0  0  0  0  0  0  0  0
    0.5213   -0.7573   -1.1232 H   0  0  0  0  0  0  0  0  0  0  0  0
    1.7195    0.5356   -2.8933 H   0  0  0  0  0  0  0  0  0  0  0  0
   -1.3823    3.5752   -2.6589 H   0  0  0  0  0  0  0  0  0  0  0  0
   -2.5513    2.2553   -0.8867 H   0  0  0  0  0  0  0  0  0  0  0  0
    0.8482    2.8933   -3.8135 N   0  0  0  0  0  0  0  0  0  0  0  0
    1.7103    3.2456   -4.4628 N   0  0  0  0  0  0  0  0  0  0  0  0
    6.3480    1.3481   -5.4632 C   0  0  0  0  0  0  0  0  0  0  0  0
    7.7370    1.2552   -5.3699 C   0  0  0  0  0  0  0  0  0  0  0  0
    8.3536    0.7326   -4.2259 C   0  0  0  0  0  0  0  0  0  0  0  0
    7.5388    0.2991   -3.1683 C   0  0  0  0  0  0  0  0  0  0  0  0
    6.1514    0.3841   -3.2471 C   0  0  0  0  0  0  0  0  0  0  0  0
    5.5617    0.9127   -4.3976 C   0  0  0  0  0  0  0  0  0  0  0  0
    5.8690    1.7400   -6.3538 H   0  0  0  0  0  0  0  0  0  0  0  0
    8.3511    1.5908   -6.2018 H   0  0  0  0  0  0  0  0  0  0  0  0
    7.9990   -0.1132   -2.2733 H   0  0  0  0  0  0  0  0  0  0  0  0
    5.5233    0.0331   -2.4357 H   0  0  0  0  0  0  0  0  0  0  0  0
    3.7778    1.0657   -4.4996 S   0  0  0  0  0  0  0  0  0  0  0  0
    3.2077   -0.0856   -3.7420 O   0  0  0  0  0  0  0  0  0  0  0  0
    3.4101    1.1517   -5.9243 O   0  0  0  0  0  0  0  0  0  0  0  0
    3.4792    2.3699   -3.7456 O   0  0  0  0  0  0  0  0  0  0  0  0
    9.8563    0.6112   -4.1363 C   0  0  0  0  0  0  0  0  0  0  0  0
   10.1770   -0.4309   -4.2561 H   0  0  0  0  0  0  0  0  0  0  0  0
   10.3535    1.1997   -4.9121 H   0  0  0  0  0  0  0  0  0  0  0  0
   10.2279    0.9513   -3.1638 H   0  0  0  0  0  0  0  0  0  0  0  0
   -1.5860    0.0949   -0.1320 H   0  0  0  0  0  0  0  0  0  0  0  0
  1  7  1  0  0  0  0
  1  6  2  0  0  0  0
  2  1  1  0  0  0  0
  3  2  2  0  0  0  0
  3  4  1  0  0  0  0
  4  5  2  0  0  0  0
  5  6  1  0  0  0  0
  5 10  1  0  0  0  0
  6 31  1  0  0  0  0
  8  2  1  0  0  0  0
  9  4  1  0  0  0  0
 11  3  1  0  0  0  0
 12 11  1  0  0  0  0
 13 14  2  0  0  0  0
 13 18  1  0  0  0  0
 14 15  1  0  0  0  0
 15 27  1  0  0  0  0
 15 16  2  0  0  0  0
 16 21  1  0  0  0  0
 17 16  1  0  0  0  0
 17 22  1  0  0  0  0
 18 17  2  0  0  0  0
 19 13  1  0  0  0  0
 20 14  1  0  0  0  0
 23 18  1  0  0  0  0
 23 26  2  0  0  0  0
 23 24  1  0  0  0  0
 25 23  2  0  0  0  0
 27 30  1  0  0  0  0
 28 27  1  0  0  0  0
 29 27  1  0  0  0  0
M  RAD  3  11   2  12   3  24   2
M  END
