Coordinates from ORCA-job Ph-N2-X-OTs-B3LYPG-6-31G_dp-scan-d09-49-n400
 OpenBabel08281821093D

 31 31  0  0  0  0  0  0  0  0999 V2000
    0.1918   -0.0254   -1.7481 C   0  0  0  0  0  0  0  0  0  0  0  0
    0.8675    0.9008   -2.5479 C   0  0  0  0  0  0  0  0  0  0  0  0
    0.2041    2.1251   -2.7295 C   0  0  0  0  0  0  0  0  0  0  0  0
   -1.0510    2.4584   -2.1883 C   0  0  0  0  0  0  0  0  0  0  0  0
   -1.6741    1.5056   -1.3986 C   0  0  0  0  0  0  0  0  0  0  0  0
   -1.0504    0.2664   -1.1817 C   0  0  0  0  0  0  0  0  0  0  0  0
    0.6514   -0.9932   -1.5721 H   0  0  0  0  0  0  0  0  0  0  0  0
    1.8846    0.6878   -3.0536 H   0  0  0  0  0  0  0  0  0  0  0  0
   -1.4994    3.4267   -2.3829 H   0  0  0  0  0  0  0  0  0  0  0  0
   -2.6409    1.7187   -0.9562 H   0  0  0  0  0  0  0  0  0  0  0  0
    0.8351    3.0823   -3.5198 N   0  0  0  0  0  0  0  0  0  0  0  0
    1.5617    3.7040   -4.1092 N   0  0  0  0  0  0  0  0  0  0  0  0
    6.2828    0.8813   -5.4995 C   0  0  0  0  0  0  0  0  0  0  0  0
    7.6446    0.5856   -5.4196 C   0  0  0  0  0  0  0  0  0  0  0  0
    8.3271    0.6392   -4.1986 C   0  0  0  0  0  0  0  0  0  0  0  0
    7.6092    1.0083   -3.0497 C   0  0  0  0  0  0  0  0  0  0  0  0
    6.2509    1.3040   -3.1137 C   0  0  0  0  0  0  0  0  0  0  0  0
    5.5911    1.2356   -4.3434 C   0  0  0  0  0  0  0  0  0  0  0  0
    5.7518    0.8503   -6.4447 H   0  0  0  0  0  0  0  0  0  0  0  0
    8.1849    0.3112   -6.3223 H   0  0  0  0  0  0  0  0  0  0  0  0
    8.1254    1.0687   -2.0942 H   0  0  0  0  0  0  0  0  0  0  0  0
    5.7064    1.6021   -2.2240 H   0  0  0  0  0  0  0  0  0  0  0  0
    3.8323    1.5762   -4.4408 S   0  0  0  0  0  0  0  0  0  0  0  0
    3.1538    0.4183   -3.7477 O   0  0  0  0  0  0  0  0  0  0  0  0
    3.4794    1.7064   -5.8666 O   0  0  0  0  0  0  0  0  0  0  0  0
    3.6291    2.8380   -3.6354 O   0  0  0  0  0  0  0  0  0  0  0  0
    9.7949    0.2937   -4.1099 C   0  0  0  0  0  0  0  0  0  0  0  0
    9.9404   -0.7100   -3.6908 H   0  0  0  0  0  0  0  0  0  0  0  0
   10.2704    0.3090   -5.0944 H   0  0  0  0  0  0  0  0  0  0  0  0
   10.3333    0.9932   -3.4621 H   0  0  0  0  0  0  0  0  0  0  0  0
   -1.5489   -0.4775   -0.5667 H   0  0  0  0  0  0  0  0  0  0  0  0
  1  7  1  0  0  0  0
  1  6  2  0  0  0  0
  2  1  1  0  0  0  0
  3  2  2  0  0  0  0
  3  4  1  0  0  0  0
  4  5  2  0  0  0  0
  5  6  1  0  0  0  0
  5 10  1  0  0  0  0
  6 31  1  0  0  0  0
  8  2  1  0  0  0  0
  9  4  1  0  0  0  0
 11  3  1  0  0  0  0
 12 11  1  0  0  0  0
 13 14  2  0  0  0  0
 13 18  1  0  0  0  0
 14 15  1  0  0  0  0
 15 27  1  0  0  0  0
 15 16  2  0  0  0  0
 16 21  1  0  0  0  0
 17 16  1  0  0  0  0
 17 22  1  0  0  0  0
 18 17  2  0  0  0  0
 19 13  1  0  0  0  0
 20 14  1  0  0  0  0
 23 18  1  0  0  0  0
 23 24  2  0  0  0  0
 23 26  1  0  0  0  0
 25 23  2  0  0  0  0
 27 28  1  0  0  0  0
 27 30  1  0  0  0  0
 29 27  1  0  0  0  0
M  RAD  3  11   2  12   3  26   2
M  END
