Coordinates from ORCA-job Ph-N2-X-OTs-B3LYPG-6-31G_dp-scan-d09-49-n400
 OpenBabel08281821093D

 31 31  0  0  0  0  0  0  0  0999 V2000
    0.1257    0.1926   -1.4549 C   0  0  0  0  0  0  0  0  0  0  0  0
    0.8014    0.9147   -2.4381 C   0  0  0  0  0  0  0  0  0  0  0  0
    0.2195    2.1308   -2.8282 C   0  0  0  0  0  0  0  0  0  0  0  0
   -0.9828    2.6278   -2.3019 C   0  0  0  0  0  0  0  0  0  0  0  0
   -1.6178    1.8853   -1.3156 C   0  0  0  0  0  0  0  0  0  0  0  0
   -1.0627    0.6696   -0.8957 C   0  0  0  0  0  0  0  0  0  0  0  0
    0.5387   -0.7562   -1.1291 H   0  0  0  0  0  0  0  0  0  0  0  0
    1.7283    0.5396   -2.9026 H   0  0  0  0  0  0  0  0  0  0  0  0
   -1.3847    3.5703   -2.6560 H   0  0  0  0  0  0  0  0  0  0  0  0
   -2.5435    2.2456   -0.8806 H   0  0  0  0  0  0  0  0  0  0  0  0
    0.8442    2.8970   -3.8179 N   0  0  0  0  0  0  0  0  0  0  0  0
    1.7032    3.2527   -4.4694 N   0  0  0  0  0  0  0  0  0  0  0  0
    6.3459    1.3465   -5.4642 C   0  0  0  0  0  0  0  0  0  0  0  0
    7.7345    1.2506   -5.3689 C   0  0  0  0  0  0  0  0  0  0  0  0
    8.3486    0.7302   -4.2225 C   0  0  0  0  0  0  0  0  0  0  0  0
    7.5315    0.3021   -3.1645 C   0  0  0  0  0  0  0  0  0  0  0  0
    6.1445    0.3901   -3.2452 C   0  0  0  0  0  0  0  0  0  0  0  0
    5.5574    0.9165   -4.3981 C   0  0  0  0  0  0  0  0  0  0  0  0
    5.8689    1.7367   -6.3566 H   0  0  0  0  0  0  0  0  0  0  0  0
    8.3504    1.5822   -6.2012 H   0  0  0  0  0  0  0  0  0  0  0  0
    7.9898   -0.1085   -2.2677 H   0  0  0  0  0  0  0  0  0  0  0  0
    5.5147    0.0434   -2.4334 H   0  0  0  0  0  0  0  0  0  0  0  0
    3.7740    1.0741   -4.5025 S   0  0  0  0  0  0  0  0  0  0  0  0
    3.1998   -0.0741   -3.7428 O   0  0  0  0  0  0  0  0  0  0  0  0
    3.4081    1.1571   -5.9278 O   0  0  0  0  0  0  0  0  0  0  0  0
    3.4771    2.3801   -3.7516 O   0  0  0  0  0  0  0  0  0  0  0  0
    9.8509    0.6056   -4.1308 C   0  0  0  0  0  0  0  0  0  0  0  0
   10.1693   -0.4376   -4.2471 H   0  0  0  0  0  0  0  0  0  0  0  0
   10.3505    1.1906   -4.9078 H   0  0  0  0  0  0  0  0  0  0  0  0
   10.2221    0.9477   -3.1589 H   0  0  0  0  0  0  0  0  0  0  0  0
   -1.5681    0.0880   -0.1303 H   0  0  0  0  0  0  0  0  0  0  0  0
  1  7  1  0  0  0  0
  1  6  2  0  0  0  0
  2  1  1  0  0  0  0
  3  2  2  0  0  0  0
  3  4  1  0  0  0  0
  4  5  2  0  0  0  0
  5  6  1  0  0  0  0
  5 10  1  0  0  0  0
  6 31  1  0  0  0  0
  8  2  1  0  0  0  0
  9  4  1  0  0  0  0
 11  3  1  0  0  0  0
 12 11  1  0  0  0  0
 13 14  2  0  0  0  0
 13 18  1  0  0  0  0
 14 15  1  0  0  0  0
 15 27  1  0  0  0  0
 15 16  2  0  0  0  0
 16 21  1  0  0  0  0
 17 16  1  0  0  0  0
 17 22  1  0  0  0  0
 18 17  2  0  0  0  0
 19 13  1  0  0  0  0
 20 14  1  0  0  0  0
 23 18  1  0  0  0  0
 23 26  2  0  0  0  0
 23 24  1  0  0  0  0
 25 23  2  0  0  0  0
 27 30  1  0  0  0  0
 28 27  1  0  0  0  0
 29 27  1  0  0  0  0
M  RAD  3  11   2  12   3  24   2
M  END
