Coordinates from ORCA-job Ph-N2-X-OTs-B3LYPG-6-31G_dp-scan-d09-49-n400
 OpenBabel08281821093D

 31 31  0  0  0  0  0  0  0  0999 V2000
    1.2005   -0.0065   -2.1361 C   0  0  0  0  0  0  0  0  0  0  0  0
    1.3213    1.0398   -3.0873 C   0  0  0  0  0  0  0  0  0  0  0  0
    0.5981    2.1686   -2.6576 C   0  0  0  0  0  0  0  0  0  0  0  0
   -0.1743    2.3571   -1.4817 C   0  0  0  0  0  0  0  0  0  0  0  0
   -0.2285    1.2810   -0.6220 C   0  0  0  0  0  0  0  0  0  0  0  0
    0.4641    0.0963   -0.9584 C   0  0  0  0  0  0  0  0  0  0  0  0
    1.7088   -0.9493   -2.3340 H   0  0  0  0  0  0  0  0  0  0  0  0
    2.2431    0.9213   -4.7248 H   0  0  0  0  0  0  0  0  0  0  0  0
   -0.6868    3.2918   -1.2741 H   0  0  0  0  0  0  0  0  0  0  0  0
   -0.7961    1.3448    0.3004 H   0  0  0  0  0  0  0  0  0  0  0  0
    0.6438    3.2537   -3.5268 N   0  0  0  0  0  0  0  0  0  0  0  0
    0.7099    4.0981   -4.2534 N   0  0  0  0  0  0  0  0  0  0  0  0
    6.2768    0.9779   -5.6928 C   0  0  0  0  0  0  0  0  0  0  0  0
    7.4268    0.5078   -5.0580 C   0  0  0  0  0  0  0  0  0  0  0  0
    7.5225    0.4748   -3.6610 C   0  0  0  0  0  0  0  0  0  0  0  0
    6.4324    0.9353   -2.9054 C   0  0  0  0  0  0  0  0  0  0  0  0
    5.2787    1.4110   -3.5215 C   0  0  0  0  0  0  0  0  0  0  0  0
    5.2095    1.4254   -4.9168 C   0  0  0  0  0  0  0  0  0  0  0  0
    6.2029    1.0124   -6.7743 H   0  0  0  0  0  0  0  0  0  0  0  0
    8.2645    0.1642   -5.6591 H   0  0  0  0  0  0  0  0  0  0  0  0
    6.4923    0.9254   -1.8198 H   0  0  0  0  0  0  0  0  0  0  0  0
    4.4409    1.7696   -2.9324 H   0  0  0  0  0  0  0  0  0  0  0  0
    3.7342    2.0371   -5.7232 S   0  0  0  0  0  0  0  0  0  0  0  0
    2.6784    0.8487   -5.5206 O   0  0  0  0  0  0  0  0  0  0  0  0
    3.9976    2.1337   -7.1532 O   0  0  0  0  0  0  0  0  0  0  0  0
    3.2632    3.2079   -4.9693 O   0  0  0  0  0  0  0  0  0  0  0  0
    8.7587   -0.0615   -2.9793 C   0  0  0  0  0  0  0  0  0  0  0  0
    8.6165   -1.1050   -2.6726 H   0  0  0  0  0  0  0  0  0  0  0  0
    9.6271   -0.0312   -3.6436 H   0  0  0  0  0  0  0  0  0  0  0  0
    8.9995    0.5101   -2.0778 H   0  0  0  0  0  0  0  0  0  0  0  0
    0.4131   -0.7494   -0.2753 H   0  0  0  0  0  0  0  0  0  0  0  0
  1  6  2  0  0  0  0
  2  3  2  0  0  0  0
  2  1  1  0  0  0  0
  3  4  1  0  0  0  0
  4  9  1  0  0  0  0
  4  5  2  0  0  0  0
  5 10  1  0  0  0  0
  6  5  1  0  0  0  0
  6 31  1  0  0  0  0
  7  1  1  0  0  0  0
 11  3  1  0  0  0  0
 12 11  1  0  0  0  0
 13 14  2  0  0  0  0
 13 18  1  0  0  0  0
 14 15  1  0  0  0  0
 15 27  1  0  0  0  0
 15 16  2  0  0  0  0
 16 21  1  0  0  0  0
 17 22  1  0  0  0  0
 17 16  1  0  0  0  0
 18 17  2  0  0  0  0
 19 13  1  0  0  0  0
 20 14  1  0  0  0  0
 23 24  1  0  0  0  0
 23 26  2  0  0  0  0
 23 18  1  0  0  0  0
 24  8  1  0  0  0  0
 25 23  2  0  0  0  0
 27 28  1  0  0  0  0
 27 30  1  0  0  0  0
 29 27  1  0  0  0  0
M  RAD  3   2   2  11   2  12   3
M  END
