Coordinates from ORCA-job Ph-N2-X-OTs-B3LYPG-6-31G_dp-scan-d09-49-n400
 OpenBabel08281821093D

 31 31  0  0  0  0  0  0  0  0999 V2000
   -0.0445    1.3104   -0.6801 C   0  0  0  0  0  0  0  0  0  0  0  0
    0.9783    1.4324   -1.6168 C   0  0  0  0  0  0  0  0  0  0  0  0
    0.6751    2.0253   -2.8505 C   0  0  0  0  0  0  0  0  0  0  0  0
   -0.6032    2.5158   -3.1446 C   0  0  0  0  0  0  0  0  0  0  0  0
   -1.6157    2.3595   -2.2034 C   0  0  0  0  0  0  0  0  0  0  0  0
   -1.3359    1.7591   -0.9727 C   0  0  0  0  0  0  0  0  0  0  0  0
    0.1695    0.8570    0.2822 H   0  0  0  0  0  0  0  0  0  0  0  0
    1.9834    1.0995   -1.4017 H   0  0  0  0  0  0  0  0  0  0  0  0
   -0.7852    2.9904   -4.1023 H   0  0  0  0  0  0  0  0  0  0  0  0
   -2.6163    2.7155   -2.4246 H   0  0  0  0  0  0  0  0  0  0  0  0
    1.6591    2.2259   -3.8391 N   0  0  0  0  0  0  0  0  0  0  0  0
    2.6377    1.7631   -4.2675 N   0  0  0  0  0  0  0  0  0  0  0  0
    5.9128    1.0524   -5.2693 C   0  0  0  0  0  0  0  0  0  0  0  0
    7.1839    1.6192   -5.1809 C   0  0  0  0  0  0  0  0  0  0  0  0
    8.1071    1.1837   -4.2207 C   0  0  0  0  0  0  0  0  0  0  0  0
    7.7233    0.1576   -3.3444 C   0  0  0  0  0  0  0  0  0  0  0  0
    6.4570   -0.4180   -3.4183 C   0  0  0  0  0  0  0  0  0  0  0  0
    5.5544    0.0390   -4.3805 C   0  0  0  0  0  0  0  0  0  0  0  0
    5.2049    1.3780   -6.0235 H   0  0  0  0  0  0  0  0  0  0  0  0
    7.4650    2.4089   -5.8731 H   0  0  0  0  0  0  0  0  0  0  0  0
    8.4287   -0.1983   -2.5974 H   0  0  0  0  0  0  0  0  0  0  0  0
    6.1686   -1.2238   -2.7516 H   0  0  0  0  0  0  0  0  0  0  0  0
    3.9126   -0.6775   -4.4646 S   0  0  0  0  0  0  0  0  0  0  0  0
    3.9970   -2.0415   -3.9335 O   0  0  0  0  0  0  0  0  0  0  0  0
    3.3981   -0.4511   -5.8193 O   0  0  0  0  0  0  0  0  0  0  0  0
    3.0707    0.1912   -3.4235 O   0  0  0  0  0  0  0  0  0  0  0  0
    9.4935    1.7790   -4.1505 C   0  0  0  0  0  0  0  0  0  0  0  0
   10.2171    1.1562   -4.6908 H   0  0  0  0  0  0  0  0  0  0  0  0
    9.5234    2.7764   -4.5975 H   0  0  0  0  0  0  0  0  0  0  0  0
    9.8437    1.8581   -3.1167 H   0  0  0  0  0  0  0  0  0  0  0  0
   -2.1247    1.6476   -0.2349 H   0  0  0  0  0  0  0  0  0  0  0  0
  1  7  1  0  0  0  0
  2  8  1  0  0  0  0
  2  1  2  0  0  0  0
  3  2  1  0  0  0  0
  4  3  2  0  0  0  0
  4  5  1  0  0  0  0
  5  6  2  0  0  0  0
  6  1  1  0  0  0  0
  6 31  1  0  0  0  0
  9  4  1  0  0  0  0
 10  5  1  0  0  0  0
 11  3  1  0  0  0  0
 12 11  2  0  0  0  0
 13 14  2  0  0  0  0
 13 18  1  0  0  0  0
 14 15  1  0  0  0  0
 15 27  1  0  0  0  0
 15 16  2  0  0  0  0
 16 21  1  0  0  0  0
 17 16  1  0  0  0  0
 17 22  1  0  0  0  0
 18 17  2  0  0  0  0
 19 13  1  0  0  0  0
 20 14  1  0  0  0  0
 23 18  1  0  0  0  0
 23 24  2  0  0  0  0
 23 26  1  0  0  0  0
 25 23  2  0  0  0  0
 27 30  1  0  0  0  0
 28 27  1  0  0  0  0
 29 27  1  0  0  0  0
M  RAD  2  12   2  26   2
M  END
