Coordinates from ORCA-job Ph-N2-X-OTs-B3LYPG-6-31G_dp-scan-d09-49-n400
 OpenBabel08281821093D

 31 31  0  0  0  0  0  0  0  0999 V2000
   -0.2113    0.3169   -1.3588 C   0  0  0  0  0  0  0  0  0  0  0  0
    0.7024    0.9716   -2.1809 C   0  0  0  0  0  0  0  0  0  0  0  0
    0.2903    2.1818   -2.7611 C   0  0  0  0  0  0  0  0  0  0  0  0
   -0.9808    2.7345   -2.5516 C   0  0  0  0  0  0  0  0  0  0  0  0
   -1.8648    2.0639   -1.7150 C   0  0  0  0  0  0  0  0  0  0  0  0
   -1.4790    0.8570   -1.1221 C   0  0  0  0  0  0  0  0  0  0  0  0
    0.0751   -0.6251   -0.9037 H   0  0  0  0  0  0  0  0  0  0  0  0
    1.6862    0.5613   -2.3802 H   0  0  0  0  0  0  0  0  0  0  0  0
   -1.2488    3.6679   -3.0337 H   0  0  0  0  0  0  0  0  0  0  0  0
   -2.8512    2.4753   -1.5301 H   0  0  0  0  0  0  0  0  0  0  0  0
    1.1471    2.8923   -3.6146 N   0  0  0  0  0  0  0  0  0  0  0  0
    2.1832    3.0705   -4.0666 N   0  0  0  0  0  0  0  0  0  0  0  0
    6.2370    1.3721   -5.2716 C   0  0  0  0  0  0  0  0  0  0  0  0
    7.6277    1.4283   -5.3524 C   0  0  0  0  0  0  0  0  0  0  0  0
    8.4359    0.8212   -4.3811 C   0  0  0  0  0  0  0  0  0  0  0  0
    7.8116    0.1505   -3.3194 C   0  0  0  0  0  0  0  0  0  0  0  0
    6.4228    0.0846   -3.2253 C   0  0  0  0  0  0  0  0  0  0  0  0
    5.6413    0.7009   -4.2036 C   0  0  0  0  0  0  0  0  0  0  0  0
    5.6123    1.8291   -6.0312 H   0  0  0  0  0  0  0  0  0  0  0  0
    8.0935    1.9480   -6.1863 H   0  0  0  0  0  0  0  0  0  0  0  0
    8.4215   -0.3292   -2.5578 H   0  0  0  0  0  0  0  0  0  0  0  0
    5.9413   -0.4467   -2.4115 H   0  0  0  0  0  0  0  0  0  0  0  0
    3.8536    0.6569   -4.0703 S   0  0  0  0  0  0  0  0  0  0  0  0
    3.4997   -0.5841   -3.3491 O   0  0  0  0  0  0  0  0  0  0  0  0
    3.2940    0.8442   -5.4227 O   0  0  0  0  0  0  0  0  0  0  0  0
    3.5130    1.8729   -3.1668 O   0  0  0  0  0  0  0  0  0  0  0  0
    9.9418    0.8581   -4.4926 C   0  0  0  0  0  0  0  0  0  0  0  0
   10.3196   -0.0198   -5.0324 H   0  0  0  0  0  0  0  0  0  0  0  0
   10.2821    1.7444   -5.0366 H   0  0  0  0  0  0  0  0  0  0  0  0
   10.4174    0.8609   -3.5074 H   0  0  0  0  0  0  0  0  0  0  0  0
   -2.1749    0.3309   -0.4754 H   0  0  0  0  0  0  0  0  0  0  0  0
  1  6  1  0  0  0  0
  1  7  1  0  0  0  0
  2  1  2  0  0  0  0
  3  4  2  0  0  0  0
  3  2  1  0  0  0  0
  4  5  1  0  0  0  0
  5 10  1  0  0  0  0
  5  6  2  0  0  0  0
  6 31  1  0  0  0  0
  8  2  1  0  0  0  0
  9  4  1  0  0  0  0
 11  3  1  0  0  0  0
 12 11  2  0  0  0  0
 13 18  1  0  0  0  0
 14 13  2  0  0  0  0
 14 15  1  0  0  0  0
 15 16  2  0  0  0  0
 16 17  1  0  0  0  0
 16 21  1  0  0  0  0
 17 22  1  0  0  0  0
 18 23  1  0  0  0  0
 18 17  2  0  0  0  0
 19 13  1  0  0  0  0
 20 14  1  0  0  0  0
 23 24  2  0  0  0  0
 23 26  1  0  0  0  0
 25 23  2  0  0  0  0
 27 15  1  0  0  0  0
 27 30  1  0  0  0  0
 28 27  1  0  0  0  0
 29 27  1  0  0  0  0
M  RAD  2  12   2  26   2
M  END
