Coordinates from ORCA-job Ph-N2-X-OTs-B3LYPG-6-31G_dp-scan-d09-49-n400
 OpenBabel08281821093D

 31 31  0  0  0  0  0  0  0  0999 V2000
   -0.3515    0.3544   -1.3979 C   0  0  0  0  0  0  0  0  0  0  0  0
    0.7149    1.0490   -1.9612 C   0  0  0  0  0  0  0  0  0  0  0  0
    0.4208    2.2453   -2.6356 C   0  0  0  0  0  0  0  0  0  0  0  0
   -0.8807    2.7520   -2.7545 C   0  0  0  0  0  0  0  0  0  0  0  0
   -1.9242    2.0386   -2.1772 C   0  0  0  0  0  0  0  0  0  0  0  0
   -1.6580    0.8422   -1.5024 C   0  0  0  0  0  0  0  0  0  0  0  0
   -0.1561   -0.5781   -0.8793 H   0  0  0  0  0  0  0  0  0  0  0  0
    1.7363    0.6925   -1.8987 H   0  0  0  0  0  0  0  0  0  0  0  0
   -1.0508    3.6796   -3.2892 H   0  0  0  0  0  0  0  0  0  0  0  0
   -2.9406    2.4100   -2.2552 H   0  0  0  0  0  0  0  0  0  0  0  0
    1.4411    2.9907   -3.2405 N   0  0  0  0  0  0  0  0  0  0  0  0
    2.5458    3.1425   -3.4978 N   0  0  0  0  0  0  0  0  0  0  0  0
    6.0941    1.3474   -5.1096 C   0  0  0  0  0  0  0  0  0  0  0  0
    7.4608    1.4420   -5.3667 C   0  0  0  0  0  0  0  0  0  0  0  0
    8.4014    0.8387   -4.5198 C   0  0  0  0  0  0  0  0  0  0  0  0
    7.9351    0.1329   -3.4017 C   0  0  0  0  0  0  0  0  0  0  0  0
    6.5717    0.0283   -3.1320 C   0  0  0  0  0  0  0  0  0  0  0  0
    5.6566    0.6416   -3.9885 C   0  0  0  0  0  0  0  0  0  0  0  0
    5.3658    1.8008   -5.7729 H   0  0  0  0  0  0  0  0  0  0  0  0
    7.8033    1.9888   -6.2420 H   0  0  0  0  0  0  0  0  0  0  0  0
    8.6495   -0.3439   -2.7354 H   0  0  0  0  0  0  0  0  0  0  0  0
    6.2120   -0.5308   -2.2748 H   0  0  0  0  0  0  0  0  0  0  0  0
    3.9025    0.5457   -3.6267 S   0  0  0  0  0  0  0  0  0  0  0  0
    3.6670   -0.7344   -2.9334 O   0  0  0  0  0  0  0  0  0  0  0  0
    3.1718    0.7950   -4.8861 O   0  0  0  0  0  0  0  0  0  0  0  0
    3.6441    1.7065   -2.6247 O   0  0  0  0  0  0  0  0  0  0  0  0
    9.8787    0.9196   -4.8241 C   0  0  0  0  0  0  0  0  0  0  0  0
   10.1813    0.1312   -5.5251 H   0  0  0  0  0  0  0  0  0  0  0  0
   10.1417    1.8779   -5.2827 H   0  0  0  0  0  0  0  0  0  0  0  0
   10.4812    0.8002   -3.9190 H   0  0  0  0  0  0  0  0  0  0  0  0
   -2.4762    0.2847   -1.0573 H   0  0  0  0  0  0  0  0  0  0  0  0
  1  7  1  0  0  0  0
  2  8  1  0  0  0  0
  2  1  2  0  0  0  0
  3  2  1  0  0  0  0
  4  3  2  0  0  0  0
  4  5  1  0  0  0  0
  5  6  2  0  0  0  0
  6  1  1  0  0  0  0
  6 31  1  0  0  0  0
  9  4  1  0  0  0  0
 10  5  1  0  0  0  0
 11  3  1  0  0  0  0
 12 11  2  0  0  0  0
 13 18  1  0  0  0  0
 14 13  2  0  0  0  0
 14 15  1  0  0  0  0
 15 16  2  0  0  0  0
 16 17  1  0  0  0  0
 16 21  1  0  0  0  0
 17 22  1  0  0  0  0
 18 23  1  0  0  0  0
 18 17  2  0  0  0  0
 19 13  1  0  0  0  0
 20 14  1  0  0  0  0
 23 24  2  0  0  0  0
 23 26  1  0  0  0  0
 25 23  2  0  0  0  0
 27 15  1  0  0  0  0
 27 30  1  0  0  0  0
 28 27  1  0  0  0  0
 29 27  1  0  0  0  0
M  RAD  2  12   2  26   2
M  END
