Coordinates from ORCA-job Ph-N2-X-OTs-B3LYPG-6-31G_dp-scan-d09-49-n400
 OpenBabel08281821093D

 31 31  0  0  0  0  0  0  0  0999 V2000
   -0.2645    0.3293   -1.3684 C   0  0  0  0  0  0  0  0  0  0  0  0
    0.7113    1.0102   -2.0914 C   0  0  0  0  0  0  0  0  0  0  0  0
    0.3311    2.2124   -2.7093 C   0  0  0  0  0  0  0  0  0  0  0  0
   -0.9669    2.7350   -2.6256 C   0  0  0  0  0  0  0  0  0  0  0  0
   -1.9155    2.0378   -1.8872 C   0  0  0  0  0  0  0  0  0  0  0  0
   -1.5631    0.8367   -1.2623 C   0  0  0  0  0  0  0  0  0  0  0  0
   -0.0028   -0.6076   -0.8885 H   0  0  0  0  0  0  0  0  0  0  0  0
    1.7218    0.6297   -2.1882 H   0  0  0  0  0  0  0  0  0  0  0  0
   -1.2069    3.6648   -3.1289 H   0  0  0  0  0  0  0  0  0  0  0  0
   -2.9254    2.4247   -1.8025 H   0  0  0  0  0  0  0  0  0  0  0  0
    1.2518    2.9459   -3.4706 N   0  0  0  0  0  0  0  0  0  0  0  0
    2.3152    3.1242   -3.8534 N   0  0  0  0  0  0  0  0  0  0  0  0
    6.1931    1.3705   -5.2145 C   0  0  0  0  0  0  0  0  0  0  0  0
    7.5780    1.4320   -5.3629 C   0  0  0  0  0  0  0  0  0  0  0  0
    8.4346    0.8192   -4.4379 C   0  0  0  0  0  0  0  0  0  0  0  0
    7.8649    0.1371   -3.3530 C   0  0  0  0  0  0  0  0  0  0  0  0
    6.4827    0.0657   -3.1916 C   0  0  0  0  0  0  0  0  0  0  0  0
    5.6523    0.6881   -4.1248 C   0  0  0  0  0  0  0  0  0  0  0  0
    5.5308    1.8323   -5.9386 H   0  0  0  0  0  0  0  0  0  0  0  0
    8.0008    1.9606   -6.2140 H   0  0  0  0  0  0  0  0  0  0  0  0
    8.5128   -0.3473   -2.6265 H   0  0  0  0  0  0  0  0  0  0  0  0
    6.0434   -0.4742   -2.3598 H   0  0  0  0  0  0  0  0  0  0  0  0
    3.8735    0.6375   -3.9025 S   0  0  0  0  0  0  0  0  0  0  0  0
    3.5581   -0.6164   -3.1878 O   0  0  0  0  0  0  0  0  0  0  0  0
    3.2478    0.8504   -5.2227 O   0  0  0  0  0  0  0  0  0  0  0  0
    3.5693    1.8360   -2.9623 O   0  0  0  0  0  0  0  0  0  0  0  0
    9.9332    0.8624   -4.6220 C   0  0  0  0  0  0  0  0  0  0  0  0
   10.2865   -0.0063   -5.1925 H   0  0  0  0  0  0  0  0  0  0  0  0
   10.2446    1.7576   -5.1688 H   0  0  0  0  0  0  0  0  0  0  0  0
   10.4554    0.8524   -3.6608 H   0  0  0  0  0  0  0  0  0  0  0  0
   -2.3085    0.2902   -0.6926 H   0  0  0  0  0  0  0  0  0  0  0  0
  1  6  1  0  0  0  0
  1  7  1  0  0  0  0
  2  1  2  0  0  0  0
  3  4  2  0  0  0  0
  3  2  1  0  0  0  0
  4  5  1  0  0  0  0
  5 10  1  0  0  0  0
  5  6  2  0  0  0  0
  6 31  1  0  0  0  0
  8  2  1  0  0  0  0
  9  4  1  0  0  0  0
 11  3  1  0  0  0  0
 12 11  2  0  0  0  0
 13 18  1  0  0  0  0
 14 13  2  0  0  0  0
 14 15  1  0  0  0  0
 15 16  2  0  0  0  0
 16 17  1  0  0  0  0
 16 21  1  0  0  0  0
 17 22  1  0  0  0  0
 18 23  1  0  0  0  0
 18 17  2  0  0  0  0
 19 13  1  0  0  0  0
 20 14  1  0  0  0  0
 23 24  2  0  0  0  0
 23 26  1  0  0  0  0
 25 23  2  0  0  0  0
 27 15  1  0  0  0  0
 27 30  1  0  0  0  0
 28 27  1  0  0  0  0
 29 27  1  0  0  0  0
M  RAD  2  12   2  26   2
M  END
