Coordinates from ORCA-job Ph-N2-X-OTs-B3LYPG-6-31G_dp-scan-d09-49-n400
 OpenBabel08281821093D

 31 31  0  0  0  0  0  0  0  0999 V2000
   -0.1513    1.0993   -0.8000 C   0  0  0  0  0  0  0  0  0  0  0  0
    0.8677    1.1533   -1.7472 C   0  0  0  0  0  0  0  0  0  0  0  0
    0.6798    1.9732   -2.8709 C   0  0  0  0  0  0  0  0  0  0  0  0
   -0.4825    2.7369   -3.0461 C   0  0  0  0  0  0  0  0  0  0  0  0
   -1.4938    2.6539   -2.0951 C   0  0  0  0  0  0  0  0  0  0  0  0
   -1.3266    1.8366   -0.9734 C   0  0  0  0  0  0  0  0  0  0  0  0
   -0.0262    0.4731    0.0775 H   0  0  0  0  0  0  0  0  0  0  0  0
    1.7838    0.5927   -1.6327 H   0  0  0  0  0  0  0  0  0  0  0  0
   -0.5768    3.3674   -3.9235 H   0  0  0  0  0  0  0  0  0  0  0  0
   -2.4055    3.2279   -2.2241 H   0  0  0  0  0  0  0  0  0  0  0  0
    1.6564    2.1125   -3.8726 N   0  0  0  0  0  0  0  0  0  0  0  0
    2.6160    1.6270   -4.3173 N   0  0  0  0  0  0  0  0  0  0  0  0
    5.9075    0.9609   -5.2977 C   0  0  0  0  0  0  0  0  0  0  0  0
    7.1535    1.5836   -5.2277 C   0  0  0  0  0  0  0  0  0  0  0  0
    8.0770    1.2477   -4.2286 C   0  0  0  0  0  0  0  0  0  0  0  0
    7.7197    0.2648   -3.2930 C   0  0  0  0  0  0  0  0  0  0  0  0
    6.4790   -0.3657   -3.3484 C   0  0  0  0  0  0  0  0  0  0  0  0
    5.5752   -0.0081   -4.3511 C   0  0  0  0  0  0  0  0  0  0  0  0
    5.1997    1.2076   -6.0813 H   0  0  0  0  0  0  0  0  0  0  0  0
    7.4158    2.3382   -5.9650 H   0  0  0  0  0  0  0  0  0  0  0  0
    8.4264   -0.0131   -2.5149 H   0  0  0  0  0  0  0  0  0  0  0  0
    6.2112   -1.1391   -2.6366 H   0  0  0  0  0  0  0  0  0  0  0  0
    3.9676   -0.8008   -4.4152 S   0  0  0  0  0  0  0  0  0  0  0  0
    4.1062   -2.1292   -3.8096 O   0  0  0  0  0  0  0  0  0  0  0  0
    3.4627   -0.6692   -5.7856 O   0  0  0  0  0  0  0  0  0  0  0  0
    3.0755    0.0781   -3.4293 O   0  0  0  0  0  0  0  0  0  0  0  0
    9.4378    1.9014   -4.1771 C   0  0  0  0  0  0  0  0  0  0  0  0
   10.1974    1.2668   -4.6502 H   0  0  0  0  0  0  0  0  0  0  0  0
    9.4409    2.8608   -4.7015 H   0  0  0  0  0  0  0  0  0  0  0  0
    9.7595    2.0755   -3.1458 H   0  0  0  0  0  0  0  0  0  0  0  0
   -2.1142    1.7770   -0.2279 H   0  0  0  0  0  0  0  0  0  0  0  0
  1  7  1  0  0  0  0
  2  8  1  0  0  0  0
  2  1  2  0  0  0  0
  3  2  1  0  0  0  0
  4  3  2  0  0  0  0
  4  5  1  0  0  0  0
  5  6  2  0  0  0  0
  6  1  1  0  0  0  0
  6 31  1  0  0  0  0
  9  4  1  0  0  0  0
 10  5  1  0  0  0  0
 11  3  1  0  0  0  0
 12 11  2  0  0  0  0
 13 14  2  0  0  0  0
 13 18  1  0  0  0  0
 14 15  1  0  0  0  0
 15 27  1  0  0  0  0
 15 16  2  0  0  0  0
 16 21  1  0  0  0  0
 17 16  1  0  0  0  0
 17 22  1  0  0  0  0
 18 17  2  0  0  0  0
 19 13  1  0  0  0  0
 20 14  1  0  0  0  0
 23 18  1  0  0  0  0
 23 24  2  0  0  0  0
 23 26  1  0  0  0  0
 25 23  2  0  0  0  0
 27 30  1  0  0  0  0
 28 27  1  0  0  0  0
 29 27  1  0  0  0  0
M  RAD  2  12   2  26   2
M  END
