Coordinates from ORCA-job Ph-N2-X-OTs-B3LYPG-6-31G_dp-scan-d09-49-n400
 OpenBabel08281821093D

 31 31  0  0  0  0  0  0  0  0999 V2000
   -0.5734    0.4739   -1.4108 C   0  0  0  0  0  0  0  0  0  0  0  0
    0.6455    1.0006   -1.8267 C   0  0  0  0  0  0  0  0  0  0  0  0
    0.6185    2.1993   -2.5582 C   0  0  0  0  0  0  0  0  0  0  0  0
   -0.5715    2.8705   -2.8693 C   0  0  0  0  0  0  0  0  0  0  0  0
   -1.7747    2.3197   -2.4438 C   0  0  0  0  0  0  0  0  0  0  0  0
   -1.7732    1.1245   -1.7172 C   0  0  0  0  0  0  0  0  0  0  0  0
   -0.5843   -0.4543   -0.8494 H   0  0  0  0  0  0  0  0  0  0  0  0
    1.5963    0.5283   -1.6130 H   0  0  0  0  0  0  0  0  0  0  0  0
   -0.5355    3.7949   -3.4347 H   0  0  0  0  0  0  0  0  0  0  0  0
   -2.7095    2.8177   -2.6775 H   0  0  0  0  0  0  0  0  0  0  0  0
    1.8064    2.7861   -3.0144 N   0  0  0  0  0  0  0  0  0  0  0  0
    2.9463    2.7156   -3.1382 N   0  0  0  0  0  0  0  0  0  0  0  0
    5.9101    1.1644   -5.0323 C   0  0  0  0  0  0  0  0  0  0  0  0
    7.2316    1.4646   -5.3635 C   0  0  0  0  0  0  0  0  0  0  0  0
    8.2976    1.0051   -4.5795 C   0  0  0  0  0  0  0  0  0  0  0  0
    8.0060    0.2303   -3.4462 C   0  0  0  0  0  0  0  0  0  0  0  0
    6.6923   -0.0796   -3.1040 C   0  0  0  0  0  0  0  0  0  0  0  0
    5.6471    0.3955   -3.8995 C   0  0  0  0  0  0  0  0  0  0  0  0
    5.0855    1.5078   -5.6468 H   0  0  0  0  0  0  0  0  0  0  0  0
    7.4384    2.0608   -6.2489 H   0  0  0  0  0  0  0  0  0  0  0  0
    8.8198   -0.1383   -2.8269 H   0  0  0  0  0  0  0  0  0  0  0  0
    6.4716   -0.6920   -2.2362 H   0  0  0  0  0  0  0  0  0  0  0  0
    3.9521    0.0253   -3.4440 S   0  0  0  0  0  0  0  0  0  0  0  0
    3.9371   -1.3243   -2.8617 O   0  0  0  0  0  0  0  0  0  0  0  0
    3.1086    0.3015   -4.6225 O   0  0  0  0  0  0  0  0  0  0  0  0
    3.6199    1.0512   -2.3108 O   0  0  0  0  0  0  0  0  0  0  0  0
    9.7278    1.3062   -4.9601 C   0  0  0  0  0  0  0  0  0  0  0  0
   10.1662    0.4799   -5.5345 H   0  0  0  0  0  0  0  0  0  0  0  0
    9.7965    2.2058   -5.5790 H   0  0  0  0  0  0  0  0  0  0  0  0
   10.3552    1.4529   -4.0755 H   0  0  0  0  0  0  0  0  0  0  0  0
   -2.7148    0.6969   -1.3869 H   0  0  0  0  0  0  0  0  0  0  0  0
  1  7  1  0  0  0  0
  2  8  1  0  0  0  0
  2  1  2  0  0  0  0
  3  2  1  0  0  0  0
  4  3  2  0  0  0  0
  4  5  1  0  0  0  0
  5  6  2  0  0  0  0
  6  1  1  0  0  0  0
  6 31  1  0  0  0  0
  9  4  1  0  0  0  0
 10  5  1  0  0  0  0
 11  3  1  0  0  0  0
 12 11  2  0  0  0  0
 13 18  1  0  0  0  0
 14 13  2  0  0  0  0
 14 15  1  0  0  0  0
 15 16  2  0  0  0  0
 16 17  1  0  0  0  0
 16 21  1  0  0  0  0
 17 22  1  0  0  0  0
 18 23  1  0  0  0  0
 18 17  2  0  0  0  0
 19 13  1  0  0  0  0
 20 14  1  0  0  0  0
 23 24  2  0  0  0  0
 23 26  1  0  0  0  0
 25 23  2  0  0  0  0
 27 15  1  0  0  0  0
 27 30  1  0  0  0  0
 28 27  1  0  0  0  0
 29 27  1  0  0  0  0
M  RAD  2  12   2  26   2
M  END
