Coordinates from ORCA-job Ph-N2-X-OTs-B3LYPG-6-31G_dp-scan-d09-49-n400
 OpenBabel08281821093D

 31 31  0  0  0  0  0  0  0  0999 V2000
   -0.5985    0.5076   -1.3829 C   0  0  0  0  0  0  0  0  0  0  0  0
    0.6304    0.9937   -1.8183 C   0  0  0  0  0  0  0  0  0  0  0  0
    0.6302    2.1815   -2.5677 C   0  0  0  0  0  0  0  0  0  0  0  0
   -0.5437    2.8811   -2.8775 C   0  0  0  0  0  0  0  0  0  0  0  0
   -1.7577    2.3707   -2.4325 C   0  0  0  0  0  0  0  0  0  0  0  0
   -1.7826    1.1870   -1.6878 C   0  0  0  0  0  0  0  0  0  0  0  0
   -0.6301   -0.4113   -0.8070 H   0  0  0  0  0  0  0  0  0  0  0  0
    1.5701    0.4984   -1.6078 H   0  0  0  0  0  0  0  0  0  0  0  0
   -0.4873    3.7957   -3.4573 H   0  0  0  0  0  0  0  0  0  0  0  0
   -2.6804    2.8913   -2.6651 H   0  0  0  0  0  0  0  0  0  0  0  0
    1.8292    2.7285   -3.0441 N   0  0  0  0  0  0  0  0  0  0  0  0
    2.9658    2.6196   -3.1770 N   0  0  0  0  0  0  0  0  0  0  0  0
    5.9032    1.1364   -5.0414 C   0  0  0  0  0  0  0  0  0  0  0  0
    7.2195    1.4716   -5.3595 C   0  0  0  0  0  0  0  0  0  0  0  0
    8.2901    1.0334   -4.5697 C   0  0  0  0  0  0  0  0  0  0  0  0
    8.0086    0.2440   -3.4439 C   0  0  0  0  0  0  0  0  0  0  0  0
    6.7002   -0.1006   -3.1147 C   0  0  0  0  0  0  0  0  0  0  0  0
    5.6501    0.3537   -3.9157 C   0  0  0  0  0  0  0  0  0  0  0  0
    5.0754    1.4631   -5.6607 H   0  0  0  0  0  0  0  0  0  0  0  0
    7.4186    2.0785   -6.2394 H   0  0  0  0  0  0  0  0  0  0  0  0
    8.8263   -0.1086   -2.8203 H   0  0  0  0  0  0  0  0  0  0  0  0
    6.4878   -0.7244   -2.2529 H   0  0  0  0  0  0  0  0  0  0  0  0
    3.9612   -0.0629   -3.4779 S   0  0  0  0  0  0  0  0  0  0  0  0
    3.9763   -1.4153   -2.9032 O   0  0  0  0  0  0  0  0  0  0  0  0
    3.1219    0.2009   -4.6616 O   0  0  0  0  0  0  0  0  0  0  0  0
    3.5942    0.9482   -2.3403 O   0  0  0  0  0  0  0  0  0  0  0  0
    9.7155    1.3721   -4.9366 C   0  0  0  0  0  0  0  0  0  0  0  0
   10.1796    0.5594   -5.5100 H   0  0  0  0  0  0  0  0  0  0  0  0
    9.7668    2.2757   -5.5513 H   0  0  0  0  0  0  0  0  0  0  0  0
   10.3312    1.5310   -4.0459 H   0  0  0  0  0  0  0  0  0  0  0  0
   -2.7324    0.7912   -1.3421 H   0  0  0  0  0  0  0  0  0  0  0  0
  1  7  1  0  0  0  0
  2  8  1  0  0  0  0
  2  1  2  0  0  0  0
  3  2  1  0  0  0  0
  4  3  2  0  0  0  0
  4  5  1  0  0  0  0
  5  6  2  0  0  0  0
  6  1  1  0  0  0  0
  6 31  1  0  0  0  0
  9  4  1  0  0  0  0
 10  5  1  0  0  0  0
 11  3  1  0  0  0  0
 12 11  2  0  0  0  0
 13 18  1  0  0  0  0
 14 13  2  0  0  0  0
 14 15  1  0  0  0  0
 15 16  2  0  0  0  0
 16 17  1  0  0  0  0
 16 21  1  0  0  0  0
 17 22  1  0  0  0  0
 18 23  1  0  0  0  0
 18 17  2  0  0  0  0
 19 13  1  0  0  0  0
 20 14  1  0  0  0  0
 23 24  2  0  0  0  0
 23 26  1  0  0  0  0
 25 23  2  0  0  0  0
 27 15  1  0  0  0  0
 27 30  1  0  0  0  0
 28 27  1  0  0  0  0
 29 27  1  0  0  0  0
M  RAD  2  12   2  26   2
M  END
