Coordinates from ORCA-job Ph-N2-X-OTs-B3LYPG-6-31G_dp-scan-d09-49-n400
 OpenBabel08281821093D

 31 31  0  0  0  0  0  0  0  0999 V2000
    0.2162    0.1701   -1.4791 C   0  0  0  0  0  0  0  0  0  0  0  0
    0.8450    0.9201   -2.4736 C   0  0  0  0  0  0  0  0  0  0  0  0
    0.2174    2.1260   -2.8226 C   0  0  0  0  0  0  0  0  0  0  0  0
   -0.9786    2.5912   -2.2531 C   0  0  0  0  0  0  0  0  0  0  0  0
   -1.5635    1.8185   -1.2601 C   0  0  0  0  0  0  0  0  0  0  0  0
   -0.9649    0.6102   -0.8768 C   0  0  0  0  0  0  0  0  0  0  0  0
    0.6608   -0.7729   -1.1782 H   0  0  0  0  0  0  0  0  0  0  0  0
    1.7762    0.5780   -2.9832 H   0  0  0  0  0  0  0  0  0  0  0  0
   -1.4127    3.5294   -2.5796 H   0  0  0  0  0  0  0  0  0  0  0  0
   -2.4830    2.1492   -0.7900 H   0  0  0  0  0  0  0  0  0  0  0  0
    0.8005    2.9156   -3.8167 N   0  0  0  0  0  0  0  0  0  0  0  0
    1.5956    3.3303   -4.5066 N   0  0  0  0  0  0  0  0  0  0  0  0
    6.3605    1.3130   -5.5079 C   0  0  0  0  0  0  0  0  0  0  0  0
    7.7430    1.1781   -5.3767 C   0  0  0  0  0  0  0  0  0  0  0  0
    8.3159    0.7047   -4.1894 C   0  0  0  0  0  0  0  0  0  0  0  0
    7.4635    0.3645   -3.1272 C   0  0  0  0  0  0  0  0  0  0  0  0
    6.0823    0.4928   -3.2437 C   0  0  0  0  0  0  0  0  0  0  0  0
    5.5363    0.9706   -4.4372 C   0  0  0  0  0  0  0  0  0  0  0  0
    5.9142    1.6677   -6.4305 H   0  0  0  0  0  0  0  0  0  0  0  0
    8.3866    1.4426   -6.2120 H   0  0  0  0  0  0  0  0  0  0  0  0
    7.8897   -0.0088   -2.1989 H   0  0  0  0  0  0  0  0  0  0  0  0
    5.4254    0.2140   -2.4270 H   0  0  0  0  0  0  0  0  0  0  0  0
    3.7618    1.1833   -4.5905 S   0  0  0  0  0  0  0  0  0  0  0  0
    3.1373    0.0687   -3.8098 O   0  0  0  0  0  0  0  0  0  0  0  0
    3.4325    1.2175   -6.0262 O   0  0  0  0  0  0  0  0  0  0  0  0
    3.4860    2.5123   -3.8883 O   0  0  0  0  0  0  0  0  0  0  0  0
    9.8111    0.5369   -4.0582 C   0  0  0  0  0  0  0  0  0  0  0  0
   10.0987   -0.5192   -4.1293 H   0  0  0  0  0  0  0  0  0  0  0  0
   10.3459    1.0770   -4.8442 H   0  0  0  0  0  0  0  0  0  0  0  0
   10.1715    0.9031   -3.0911 H   0  0  0  0  0  0  0  0  0  0  0  0
   -1.4319    0.0063   -0.1042 H   0  0  0  0  0  0  0  0  0  0  0  0
  1  7  1  0  0  0  0
  1  6  2  0  0  0  0
  2  1  1  0  0  0  0
  3  2  2  0  0  0  0
  3  4  1  0  0  0  0
  4  5  2  0  0  0  0
  5  6  1  0  0  0  0
  5 10  1  0  0  0  0
  6 31  1  0  0  0  0
  8  2  1  0  0  0  0
  9  4  1  0  0  0  0
 11  3  1  0  0  0  0
 12 11  1  0  0  0  0
 13 14  2  0  0  0  0
 13 18  1  0  0  0  0
 14 15  1  0  0  0  0
 15 27  1  0  0  0  0
 15 16  2  0  0  0  0
 16 21  1  0  0  0  0
 17 16  1  0  0  0  0
 17 22  1  0  0  0  0
 18 17  2  0  0  0  0
 19 13  1  0  0  0  0
 20 14  1  0  0  0  0
 23 18  1  0  0  0  0
 23 26  2  0  0  0  0
 23 24  1  0  0  0  0
 25 23  2  0  0  0  0
 27 30  1  0  0  0  0
 28 27  1  0  0  0  0
 29 27  1  0  0  0  0
M  RAD  3  11   2  12   3  24   2
M  END
