Coordinates from ORCA-job Ph-N2-X-OTs-B3LYPG-6-31G_dp-scan-d09-49-n400
 OpenBabel08281821093D

 31 31  0  0  0  0  0  0  0  0999 V2000
   -0.5494    0.4647   -1.4028 C   0  0  0  0  0  0  0  0  0  0  0  0
    0.6556    1.0172   -1.8256 C   0  0  0  0  0  0  0  0  0  0  0  0
    0.5980    2.2100   -2.5649 C   0  0  0  0  0  0  0  0  0  0  0  0
   -0.6082    2.8513   -2.8770 C   0  0  0  0  0  0  0  0  0  0  0  0
   -1.7967    2.2751   -2.4440 C   0  0  0  0  0  0  0  0  0  0  0  0
   -1.7649    1.0849   -1.7098 C   0  0  0  0  0  0  0  0  0  0  0  0
   -0.5367   -0.4600   -0.8357 H   0  0  0  0  0  0  0  0  0  0  0  0
    1.6179    0.5687   -1.6118 H   0  0  0  0  0  0  0  0  0  0  0  0
   -0.5956    3.7725   -3.4485 H   0  0  0  0  0  0  0  0  0  0  0  0
   -2.7436    2.7493   -2.6782 H   0  0  0  0  0  0  0  0  0  0  0  0
    1.7712    2.8196   -3.0285 N   0  0  0  0  0  0  0  0  0  0  0  0
    2.9113    2.7781   -3.1575 N   0  0  0  0  0  0  0  0  0  0  0  0
    5.9260    1.1870   -5.0308 C   0  0  0  0  0  0  0  0  0  0  0  0
    7.2523    1.4614   -5.3629 C   0  0  0  0  0  0  0  0  0  0  0  0
    8.3101    0.9831   -4.5779 C   0  0  0  0  0  0  0  0  0  0  0  0
    8.0043    0.2169   -3.4434 C   0  0  0  0  0  0  0  0  0  0  0  0
    6.6846   -0.0675   -3.0999 C   0  0  0  0  0  0  0  0  0  0  0  0
    5.6488    0.4251   -3.8959 C   0  0  0  0  0  0  0  0  0  0  0  0
    5.1078    1.5444   -5.6458 H   0  0  0  0  0  0  0  0  0  0  0  0
    7.4698    2.0520   -6.2496 H   0  0  0  0  0  0  0  0  0  0  0  0
    8.8114   -0.1655   -2.8238 H   0  0  0  0  0  0  0  0  0  0  0  0
    6.4526   -0.6738   -2.2307 H   0  0  0  0  0  0  0  0  0  0  0  0
    3.9470    0.0891   -3.4389 S   0  0  0  0  0  0  0  0  0  0  0  0
    3.9081   -1.2544   -2.8431 O   0  0  0  0  0  0  0  0  0  0  0  0
    3.1101    0.3652   -4.6226 O   0  0  0  0  0  0  0  0  0  0  0  0
    3.6293    1.1311   -2.3185 O   0  0  0  0  0  0  0  0  0  0  0  0
    9.7447    1.2566   -4.9631 C   0  0  0  0  0  0  0  0  0  0  0  0
   10.1248    0.4841   -5.6437 H   0  0  0  0  0  0  0  0  0  0  0  0
    9.8448    2.2179   -5.4764 H   0  0  0  0  0  0  0  0  0  0  0  0
   10.3995    1.2692   -4.0866 H   0  0  0  0  0  0  0  0  0  0  0  0
   -2.6953    0.6374   -1.3742 H   0  0  0  0  0  0  0  0  0  0  0  0
  1  7  1  0  0  0  0
  2  8  1  0  0  0  0
  2  1  2  0  0  0  0
  3  2  1  0  0  0  0
  4  3  2  0  0  0  0
  4  5  1  0  0  0  0
  5  6  2  0  0  0  0
  6  1  1  0  0  0  0
  6 31  1  0  0  0  0
  9  4  1  0  0  0  0
 10  5  1  0  0  0  0
 11  3  1  0  0  0  0
 12 11  2  0  0  0  0
 13 18  1  0  0  0  0
 14 13  2  0  0  0  0
 14 15  1  0  0  0  0
 15 16  2  0  0  0  0
 16 17  1  0  0  0  0
 16 21  1  0  0  0  0
 17 22  1  0  0  0  0
 18 23  1  0  0  0  0
 18 17  2  0  0  0  0
 19 13  1  0  0  0  0
 20 14  1  0  0  0  0
 23 24  2  0  0  0  0
 23 26  1  0  0  0  0
 25 23  2  0  0  0  0
 27 15  1  0  0  0  0
 27 30  1  0  0  0  0
 28 27  1  0  0  0  0
 29 27  1  0  0  0  0
M  RAD  2  12   2  26   2
M  END
