Coordinates from ORCA-job Ph-N2-X-OTs-B3LYPG-6-31G_dp-scan-d09-49-n400
 OpenBabel08281821093D

 31 31  0  0  0  0  0  0  0  0999 V2000
   -0.3749    0.3682   -1.4098 C   0  0  0  0  0  0  0  0  0  0  0  0
    0.7241    1.0716   -1.8934 C   0  0  0  0  0  0  0  0  0  0  0  0
    0.4708    2.2595   -2.5985 C   0  0  0  0  0  0  0  0  0  0  0  0
   -0.8225    2.7513   -2.8214 C   0  0  0  0  0  0  0  0  0  0  0  0
   -1.9002    2.0275   -2.3256 C   0  0  0  0  0  0  0  0  0  0  0  0
   -1.6745    0.8389   -1.6230 C   0  0  0  0  0  0  0  0  0  0  0  0
   -0.2107   -0.5580   -0.8696 H   0  0  0  0  0  0  0  0  0  0  0  0
    1.7424    0.7312   -1.7487 H   0  0  0  0  0  0  0  0  0  0  0  0
   -0.9601    3.6744   -3.3731 H   0  0  0  0  0  0  0  0  0  0  0  0
   -2.9114    2.3852   -2.4879 H   0  0  0  0  0  0  0  0  0  0  0  0
    1.5288    3.0127   -3.1226 N   0  0  0  0  0  0  0  0  0  0  0  0
    2.6472    3.1549   -3.3184 N   0  0  0  0  0  0  0  0  0  0  0  0
    6.0405    1.3401   -5.0593 C   0  0  0  0  0  0  0  0  0  0  0  0
    7.3963    1.4468   -5.3652 C   0  0  0  0  0  0  0  0  0  0  0  0
    8.3716    0.8474   -4.5557 C   0  0  0  0  0  0  0  0  0  0  0  0
    7.9515    0.1331   -3.4247 C   0  0  0  0  0  0  0  0  0  0  0  0
    6.5997    0.0163   -3.1065 C   0  0  0  0  0  0  0  0  0  0  0  0
    5.6493    0.6261   -3.9263 C   0  0  0  0  0  0  0  0  0  0  0  0
    5.2850    1.7900   -5.6937 H   0  0  0  0  0  0  0  0  0  0  0  0
    7.7026    1.9999   -6.2499 H   0  0  0  0  0  0  0  0  0  0  0  0
    8.6933   -0.3410   -2.7870 H   0  0  0  0  0  0  0  0  0  0  0  0
    6.2758   -0.5498   -2.2396 H   0  0  0  0  0  0  0  0  0  0  0  0
    3.9103    0.5116   -3.5016 S   0  0  0  0  0  0  0  0  0  0  0  0
    3.7091   -0.7819   -2.8244 O   0  0  0  0  0  0  0  0  0  0  0  0
    3.1331    0.7809   -4.7289 O   0  0  0  0  0  0  0  0  0  0  0  0
    3.6791    1.6528   -2.4698 O   0  0  0  0  0  0  0  0  0  0  0  0
    9.8362    0.9413   -4.9127 C   0  0  0  0  0  0  0  0  0  0  0  0
   10.1164    0.1674   -5.6386 H   0  0  0  0  0  0  0  0  0  0  0  0
   10.0777    1.9092   -5.3632 H   0  0  0  0  0  0  0  0  0  0  0  0
   10.4722    0.8091   -4.0327 H   0  0  0  0  0  0  0  0  0  0  0  0
   -2.5191    0.2742   -1.2404 H   0  0  0  0  0  0  0  0  0  0  0  0
  1  7  1  0  0  0  0
  2  8  1  0  0  0  0
  2  1  2  0  0  0  0
  3  2  1  0  0  0  0
  4  3  2  0  0  0  0
  4  5  1  0  0  0  0
  5  6  2  0  0  0  0
  6  1  1  0  0  0  0
  6 31  1  0  0  0  0
  9  4  1  0  0  0  0
 10  5  1  0  0  0  0
 11  3  1  0  0  0  0
 12 11  2  0  0  0  0
 13 18  1  0  0  0  0
 14 13  2  0  0  0  0
 14 15  1  0  0  0  0
 15 16  2  0  0  0  0
 16 17  1  0  0  0  0
 16 21  1  0  0  0  0
 17 22  1  0  0  0  0
 18 23  1  0  0  0  0
 18 17  2  0  0  0  0
 19 13  1  0  0  0  0
 20 14  1  0  0  0  0
 23 24  2  0  0  0  0
 23 26  1  0  0  0  0
 25 23  2  0  0  0  0
 27 15  1  0  0  0  0
 27 30  1  0  0  0  0
 28 27  1  0  0  0  0
 29 27  1  0  0  0  0
M  RAD  2  12   2  26   2
M  END
