Coordinates from ORCA-job Ph-N2-X-OTs-B3LYPG-6-31G_dp-scan-d09-49-n400
 OpenBabel08281821093D

 31 31  0  0  0  0  0  0  0  0999 V2000
   -0.5208    0.4537   -1.3931 C   0  0  0  0  0  0  0  0  0  0  0  0
    0.6665    1.0343   -1.8277 C   0  0  0  0  0  0  0  0  0  0  0  0
    0.5727    2.2209   -2.5733 C   0  0  0  0  0  0  0  0  0  0  0  0
   -0.6515    2.8294   -2.8805 C   0  0  0  0  0  0  0  0  0  0  0  0
   -1.8216    2.2254   -2.4354 C   0  0  0  0  0  0  0  0  0  0  0  0
   -1.7540    1.0408   -1.6946 C   0  0  0  0  0  0  0  0  0  0  0  0
   -0.4802   -0.4673   -0.8212 H   0  0  0  0  0  0  0  0  0  0  0  0
    1.6413    0.6110   -1.6184 H   0  0  0  0  0  0  0  0  0  0  0  0
   -0.6668    3.7471   -3.4574 H   0  0  0  0  0  0  0  0  0  0  0  0
   -2.7821    2.6738   -2.6654 H   0  0  0  0  0  0  0  0  0  0  0  0
    1.7273    2.8566   -3.0486 N   0  0  0  0  0  0  0  0  0  0  0  0
    2.8664    2.8474   -3.1862 N   0  0  0  0  0  0  0  0  0  0  0  0
    5.9461    1.2213   -5.0282 C   0  0  0  0  0  0  0  0  0  0  0  0
    7.2783    1.4660   -5.3588 C   0  0  0  0  0  0  0  0  0  0  0  0
    8.3244    0.9582   -4.5761 C   0  0  0  0  0  0  0  0  0  0  0  0
    8.0003    0.1936   -3.4460 C   0  0  0  0  0  0  0  0  0  0  0  0
    6.6739   -0.0611   -3.1038 C   0  0  0  0  0  0  0  0  0  0  0  0
    5.6505    0.4601   -3.8972 C   0  0  0  0  0  0  0  0  0  0  0  0
    5.1367    1.6009   -5.6418 H   0  0  0  0  0  0  0  0  0  0  0  0
    7.5100    2.0560   -6.2423 H   0  0  0  0  0  0  0  0  0  0  0  0
    8.7981   -0.2114   -2.8286 H   0  0  0  0  0  0  0  0  0  0  0  0
    6.4269   -0.6664   -2.2381 H   0  0  0  0  0  0  0  0  0  0  0  0
    3.9410    0.1629   -3.4418 S   0  0  0  0  0  0  0  0  0  0  0  0
    3.8754   -1.1732   -2.8306 O   0  0  0  0  0  0  0  0  0  0  0  0
    3.1125    0.4381   -4.6319 O   0  0  0  0  0  0  0  0  0  0  0  0
    3.6387    1.2246   -2.3368 O   0  0  0  0  0  0  0  0  0  0  0  0
    9.7650    1.1999   -4.9602 C   0  0  0  0  0  0  0  0  0  0  0  0
   10.1141    0.4463   -5.6775 H   0  0  0  0  0  0  0  0  0  0  0  0
    9.8950    2.1792   -5.4313 H   0  0  0  0  0  0  0  0  0  0  0  0
   10.4253    1.1515   -4.0892 H   0  0  0  0  0  0  0  0  0  0  0  0
   -2.6702    0.5714   -1.3500 H   0  0  0  0  0  0  0  0  0  0  0  0
  1  7  1  0  0  0  0
  2  8  1  0  0  0  0
  2  1  2  0  0  0  0
  3  2  1  0  0  0  0
  4  3  2  0  0  0  0
  4  5  1  0  0  0  0
  5  6  2  0  0  0  0
  6  1  1  0  0  0  0
  6 31  1  0  0  0  0
  9  4  1  0  0  0  0
 10  5  1  0  0  0  0
 11  3  1  0  0  0  0
 12 11  2  0  0  0  0
 13 18  1  0  0  0  0
 14 13  2  0  0  0  0
 14 15  1  0  0  0  0
 15 16  2  0  0  0  0
 16 17  1  0  0  0  0
 16 21  1  0  0  0  0
 17 22  1  0  0  0  0
 18 23  1  0  0  0  0
 18 17  2  0  0  0  0
 19 13  1  0  0  0  0
 20 14  1  0  0  0  0
 23 24  2  0  0  0  0
 23 26  1  0  0  0  0
 25 23  2  0  0  0  0
 27 15  1  0  0  0  0
 27 30  1  0  0  0  0
 28 27  1  0  0  0  0
 29 27  1  0  0  0  0
M  RAD  2  12   2  26   2
M  END
