Coordinates from ORCA-job Ph-N2-X-OTs-B3LYPG-6-31G_dp-scan-d09-49-n400
 OpenBabel08281821093D

 31 31  0  0  0  0  0  0  0  0999 V2000
   -0.6079    0.5332   -1.3520 C   0  0  0  0  0  0  0  0  0  0  0  0
    0.6218    0.9931   -1.8132 C   0  0  0  0  0  0  0  0  0  0  0  0
    0.6292    2.1699   -2.5798 C   0  0  0  0  0  0  0  0  0  0  0  0
   -0.5384    2.8838   -2.8813 C   0  0  0  0  0  0  0  0  0  0  0  0
   -1.7534    2.3996   -2.4103 C   0  0  0  0  0  0  0  0  0  0  0  0
   -1.7856    1.2272   -1.6483 C   0  0  0  0  0  0  0  0  0  0  0  0
   -0.6452   -0.3767   -0.7621 H   0  0  0  0  0  0  0  0  0  0  0  0
    1.5565    0.4853   -1.6107 H   0  0  0  0  0  0  0  0  0  0  0  0
   -0.4765    3.7889   -3.4751 H   0  0  0  0  0  0  0  0  0  0  0  0
   -2.6711    2.9318   -2.6363 H   0  0  0  0  0  0  0  0  0  0  0  0
    1.8285    2.6914   -3.0841 N   0  0  0  0  0  0  0  0  0  0  0  0
    2.9612    2.5573   -3.2326 N   0  0  0  0  0  0  0  0  0  0  0  0
    5.9075    1.1212   -5.0551 C   0  0  0  0  0  0  0  0  0  0  0  0
    7.2222    1.4768   -5.3570 C   0  0  0  0  0  0  0  0  0  0  0  0
    8.2904    1.0494   -4.5579 C   0  0  0  0  0  0  0  0  0  0  0  0
    8.0079    0.2501   -3.4394 C   0  0  0  0  0  0  0  0  0  0  0  0
    6.7011   -0.1148   -3.1263 C   0  0  0  0  0  0  0  0  0  0  0  0
    5.6534    0.3289   -3.9364 C   0  0  0  0  0  0  0  0  0  0  0  0
    5.0820    1.4394   -5.6818 H   0  0  0  0  0  0  0  0  0  0  0  0
    7.4223    2.0913   -6.2315 H   0  0  0  0  0  0  0  0  0  0  0  0
    8.8238   -0.0946   -2.8090 H   0  0  0  0  0  0  0  0  0  0  0  0
    6.4881   -0.7465   -2.2704 H   0  0  0  0  0  0  0  0  0  0  0  0
    3.9659   -0.1150   -3.5203 S   0  0  0  0  0  0  0  0  0  0  0  0
    3.9956   -1.4661   -2.9439 O   0  0  0  0  0  0  0  0  0  0  0  0
    3.1381    0.1364   -4.7142 O   0  0  0  0  0  0  0  0  0  0  0  0
    3.5688    0.8909   -2.3863 O   0  0  0  0  0  0  0  0  0  0  0  0
    9.7147    1.4100   -4.9077 C   0  0  0  0  0  0  0  0  0  0  0  0
   10.1963    0.6066   -5.4799 H   0  0  0  0  0  0  0  0  0  0  0  0
    9.7599    2.3171   -5.5175 H   0  0  0  0  0  0  0  0  0  0  0  0
   10.3185    1.5731   -4.0096 H   0  0  0  0  0  0  0  0  0  0  0  0
   -2.7361    0.8518   -1.2823 H   0  0  0  0  0  0  0  0  0  0  0  0
  1  7  1  0  0  0  0
  2  8  1  0  0  0  0
  2  1  2  0  0  0  0
  3  2  1  0  0  0  0
  4  3  2  0  0  0  0
  4  5  1  0  0  0  0
  5  6  2  0  0  0  0
  6  1  1  0  0  0  0
  6 31  1  0  0  0  0
  9  4  1  0  0  0  0
 10  5  1  0  0  0  0
 11  3  1  0  0  0  0
 12 11  2  0  0  0  0
 13 18  1  0  0  0  0
 14 13  2  0  0  0  0
 14 15  1  0  0  0  0
 15 16  2  0  0  0  0
 16 17  1  0  0  0  0
 16 21  1  0  0  0  0
 17 22  1  0  0  0  0
 18 23  1  0  0  0  0
 18 17  2  0  0  0  0
 19 13  1  0  0  0  0
 20 14  1  0  0  0  0
 23 24  2  0  0  0  0
 23 26  1  0  0  0  0
 25 23  2  0  0  0  0
 27 15  1  0  0  0  0
 27 30  1  0  0  0  0
 28 27  1  0  0  0  0
 29 27  1  0  0  0  0
M  RAD  2  12   2  26   2
M  END
