Coordinates from ORCA-job Ph-N2-X-OTs-B3LYPG-6-31G_dp-scan-d09-49-n400
 OpenBabel08281821093D

 31 31  0  0  0  0  0  0  0  0999 V2000
    0.5202   -0.0665   -2.1314 C   0  0  0  0  0  0  0  0  0  0  0  0
    0.9954    1.0099   -2.9141 C   0  0  0  0  0  0  0  0  0  0  0  0
    0.2890    2.1937   -2.6362 C   0  0  0  0  0  0  0  0  0  0  0  0
   -0.7723    2.3952   -1.7178 C   0  0  0  0  0  0  0  0  0  0  0  0
   -1.1699    1.2887   -0.9970 C   0  0  0  0  0  0  0  0  0  0  0  0
   -0.5182    0.0554   -1.2105 C   0  0  0  0  0  0  0  0  0  0  0  0
    0.9878   -1.0415   -2.2552 H   0  0  0  0  0  0  0  0  0  0  0  0
    2.1643    0.8435   -3.9268 H   0  0  0  0  0  0  0  0  0  0  0  0
   -1.2403    3.3667   -1.5922 H   0  0  0  0  0  0  0  0  0  0  0  0
   -1.9766    1.3687   -0.2759 H   0  0  0  0  0  0  0  0  0  0  0  0
    0.6761    3.3118   -3.3648 N   0  0  0  0  0  0  0  0  0  0  0  0
    1.0236    4.1823   -3.9689 N   0  0  0  0  0  0  0  0  0  0  0  0
    6.2391    0.6636   -5.5431 C   0  0  0  0  0  0  0  0  0  0  0  0
    7.5298    0.2620   -5.2014 C   0  0  0  0  0  0  0  0  0  0  0  0
    8.0687    0.5478   -3.9397 C   0  0  0  0  0  0  0  0  0  0  0  0
    7.2800    1.2598   -3.0235 C   0  0  0  0  0  0  0  0  0  0  0  0
    5.9878    1.6659   -3.3483 C   0  0  0  0  0  0  0  0  0  0  0  0
    5.4729    1.3603   -4.6089 C   0  0  0  0  0  0  0  0  0  0  0  0
    5.8312    0.4588   -6.5266 H   0  0  0  0  0  0  0  0  0  0  0  0
    8.1316   -0.2749   -5.9301 H   0  0  0  0  0  0  0  0  0  0  0  0
    7.6864    1.5057   -2.0456 H   0  0  0  0  0  0  0  0  0  0  0  0
    5.3853    2.2314   -2.6458 H   0  0  0  0  0  0  0  0  0  0  0  0
    3.8084    1.8618   -5.0366 S   0  0  0  0  0  0  0  0  0  0  0  0
    2.9456    0.6196   -4.6079 O   0  0  0  0  0  0  0  0  0  0  0  0
    3.7548    2.0342   -6.4896 O   0  0  0  0  0  0  0  0  0  0  0  0
    3.4515    3.0106   -4.1760 O   0  0  0  0  0  0  0  0  0  0  0  0
    9.4592    0.0907   -3.5665 C   0  0  0  0  0  0  0  0  0  0  0  0
    9.4241   -0.8259   -2.9644 H   0  0  0  0  0  0  0  0  0  0  0  0
   10.0620   -0.1226   -4.4535 H   0  0  0  0  0  0  0  0  0  0  0  0
    9.9831    0.8472   -2.9733 H   0  0  0  0  0  0  0  0  0  0  0  0
   -0.8412   -0.8127   -0.6406 H   0  0  0  0  0  0  0  0  0  0  0  0
  1  6  2  0  0  0  0
  2  3  2  0  0  0  0
  2  1  1  0  0  0  0
  3  4  1  0  0  0  0
  4  9  1  0  0  0  0
  4  5  2  0  0  0  0
  5 10  1  0  0  0  0
  6  5  1  0  0  0  0
  6 31  1  0  0  0  0
  7  1  1  0  0  0  0
 11  3  1  0  0  0  0
 12 11  1  0  0  0  0
 13 14  2  0  0  0  0
 13 18  1  0  0  0  0
 14 15  1  0  0  0  0
 15 27  1  0  0  0  0
 15 16  2  0  0  0  0
 16 21  1  0  0  0  0
 17 16  1  0  0  0  0
 17 22  1  0  0  0  0
 18 17  2  0  0  0  0
 19 13  1  0  0  0  0
 20 14  1  0  0  0  0
 23 18  1  0  0  0  0
 23 24  1  0  0  0  0
 23 26  2  0  0  0  0
 24  8  1  0  0  0  0
 25 23  2  0  0  0  0
 27 30  1  0  0  0  0
 27 28  1  0  0  0  0
 29 27  1  0  0  0  0
M  RAD  3   2   2  11   2  12   3
M  END
