Coordinates from ORCA-job Ph-N2-X-OTs-B3LYPG-6-31G_dp-scan-d09-49-n400
 OpenBabel08281821093D

 31 31  0  0  0  0  0  0  0  0999 V2000
   -0.0174    0.2535   -1.3931 C   0  0  0  0  0  0  0  0  0  0  0  0
    0.7544    0.9396   -2.3290 C   0  0  0  0  0  0  0  0  0  0  0  0
    0.2283    2.1452   -2.8188 C   0  0  0  0  0  0  0  0  0  0  0  0
   -1.0141    2.6639   -2.4250 C   0  0  0  0  0  0  0  0  0  0  0  0
   -1.7492    1.9600   -1.4799 C   0  0  0  0  0  0  0  0  0  0  0  0
   -1.2501    0.7565   -0.9677 C   0  0  0  0  0  0  0  0  0  0  0  0
    0.3541   -0.6862   -0.9987 H   0  0  0  0  0  0  0  0  0  0  0  0
    1.7095    0.5449   -2.6816 H   0  0  0  0  0  0  0  0  0  0  0  0
   -1.3718    3.5953   -2.8487 H   0  0  0  0  0  0  0  0  0  0  0  0
   -2.7089    2.3412   -1.1490 H   0  0  0  0  0  0  0  0  0  0  0  0
    0.9428    2.8792   -3.7738 N   0  0  0  0  0  0  0  0  0  0  0  0
    1.8799    3.1679   -4.3529 N   0  0  0  0  0  0  0  0  0  0  0  0
    6.3113    1.3749   -5.3772 C   0  0  0  0  0  0  0  0  0  0  0  0
    7.7047    1.3378   -5.3614 C   0  0  0  0  0  0  0  0  0  0  0  0
    8.4029    0.7634   -4.2900 C   0  0  0  0  0  0  0  0  0  0  0  0
    7.6651    0.2229   -3.2269 C   0  0  0  0  0  0  0  0  0  0  0  0
    6.2719    0.2519   -3.2284 C   0  0  0  0  0  0  0  0  0  0  0  0
    5.6012    0.8320   -4.3059 C   0  0  0  0  0  0  0  0  0  0  0  0
    5.7704    1.8056   -6.2128 H   0  0  0  0  0  0  0  0  0  0  0  0
    8.2593    1.7580   -6.1970 H   0  0  0  0  0  0  0  0  0  0  0  0
    8.1892   -0.2286   -2.3879 H   0  0  0  0  0  0  0  0  0  0  0  0
    5.7020   -0.1798   -2.4130 H   0  0  0  0  0  0  0  0  0  0  0  0
    3.8098    0.9133   -4.3046 S   0  0  0  0  0  0  0  0  0  0  0  0
    3.3253   -0.2576   -3.5279 O   0  0  0  0  0  0  0  0  0  0  0  0
    3.3589    1.0108   -5.7056 O   0  0  0  0  0  0  0  0  0  0  0  0
    3.4995    2.2058   -3.5227 O   0  0  0  0  0  0  0  0  0  0  0  0
    9.9118    0.6969   -4.2958 C   0  0  0  0  0  0  0  0  0  0  0  0
   10.2642   -0.2403   -4.7456 H   0  0  0  0  0  0  0  0  0  0  0  0
   10.3474    1.5175   -4.8736 H   0  0  0  0  0  0  0  0  0  0  0  0
   10.3195    0.7416   -3.2815 H   0  0  0  0  0  0  0  0  0  0  0  0
   -1.8322    0.2039   -0.2362 H   0  0  0  0  0  0  0  0  0  0  0  0
  1  7  1  0  0  0  0
  1  6  1  0  0  0  0
  2  1  2  0  0  0  0
  3  4  2  0  0  0  0
  3  2  1  0  0  0  0
  4  5  1  0  0  0  0
  5 10  1  0  0  0  0
  5  6  2  0  0  0  0
  6 31  1  0  0  0  0
  8  2  1  0  0  0  0
  9  4  1  0  0  0  0
 11  3  1  0  0  0  0
 12 11  2  0  0  0  0
 13 14  2  0  0  0  0
 13 18  1  0  0  0  0
 14 15  1  0  0  0  0
 15 16  2  0  0  0  0
 16 21  1  0  0  0  0
 17 16  1  0  0  0  0
 17 22  1  0  0  0  0
 18 23  1  0  0  0  0
 18 17  2  0  0  0  0
 19 13  1  0  0  0  0
 20 14  1  0  0  0  0
 23 24  2  0  0  0  0
 23 26  1  0  0  0  0
 25 23  2  0  0  0  0
 27 15  1  0  0  0  0
 27 30  1  0  0  0  0
 28 27  1  0  0  0  0
 29 27  1  0  0  0  0
M  RAD  2  12   2  26   2
M  END
