Coordinates from ORCA-job Ph-N2-X-OTs-B3LYPG-6-31G_dp-scan-d09-49-n400
 OpenBabel08281821093D

 31 32  0  0  0  0  0  0  0  0999 V2000
    0.0709    1.5267   -0.5869 C   0  0  0  0  0  0  0  0  0  0  0  0
    1.0813    1.7476   -1.5197 C   0  0  0  0  0  0  0  0  0  0  0  0
    0.7118    2.0912   -2.8250 C   0  0  0  0  0  0  0  0  0  0  0  0
   -0.6254    2.2557   -3.1989 C   0  0  0  0  0  0  0  0  0  0  0  0
   -1.6193    2.0001   -2.2582 C   0  0  0  0  0  0  0  0  0  0  0  0
   -1.2728    1.6382   -0.9540 C   0  0  0  0  0  0  0  0  0  0  0  0
    0.3381    1.2598    0.4305 H   0  0  0  0  0  0  0  0  0  0  0  0
    2.1247    1.6837   -1.2393 H   0  0  0  0  0  0  0  0  0  0  0  0
   -0.8670    2.5563   -4.2122 H   0  0  0  0  0  0  0  0  0  0  0  0
   -2.6626    2.0973   -2.5410 H   0  0  0  0  0  0  0  0  0  0  0  0
    1.6902    2.3911   -3.8052 N   0  0  0  0  0  0  0  0  0  0  0  0
    2.6678    1.9220   -4.2402 N   0  0  0  0  0  0  0  0  0  0  0  0
    5.9246    1.1124   -5.2967 C   0  0  0  0  0  0  0  0  0  0  0  0
    7.2183    1.6168   -5.1698 C   0  0  0  0  0  0  0  0  0  0  0  0
    8.0977    1.1223   -4.1972 C   0  0  0  0  0  0  0  0  0  0  0  0
    7.6466    0.1006   -3.3483 C   0  0  0  0  0  0  0  0  0  0  0  0
    6.3574   -0.4144   -3.4610 C   0  0  0  0  0  0  0  0  0  0  0  0
    5.5001    0.1012   -4.4348 C   0  0  0  0  0  0  0  0  0  0  0  0
    5.2495    1.4851   -6.0591 H   0  0  0  0  0  0  0  0  0  0  0  0
    7.5509    2.4043   -5.8414 H   0  0  0  0  0  0  0  0  0  0  0  0
    8.3165   -0.3002   -2.5915 H   0  0  0  0  0  0  0  0  0  0  0  0
    6.0172   -1.2167   -2.8148 H   0  0  0  0  0  0  0  0  0  0  0  0
    3.8302   -0.5340   -4.5680 S   0  0  0  0  0  0  0  0  0  0  0  0
    3.8357   -1.9179   -4.0873 O   0  0  0  0  0  0  0  0  0  0  0  0
    3.3390   -0.2240   -5.9137 O   0  0  0  0  0  0  0  0  0  0  0  0
    3.0132    0.3301   -3.4916 O   0  0  0  0  0  0  0  0  0  0  0  0
    9.5080    1.6504   -4.0862 C   0  0  0  0  0  0  0  0  0  0  0  0
   10.2059    1.0324   -4.6642 H   0  0  0  0  0  0  0  0  0  0  0  0
    9.5848    2.6723   -4.4684 H   0  0  0  0  0  0  0  0  0  0  0  0
    9.8564    1.6479   -3.0488 H   0  0  0  0  0  0  0  0  0  0  0  0
   -2.0502    1.4529   -0.2194 H   0  0  0  0  0  0  0  0  0  0  0  0
  1  7  1  0  0  0  0
  2  8  1  0  0  0  0
  2  1  2  0  0  0  0
  3  2  1  0  0  0  0
  4  3  2  0  0  0  0
  4  5  1  0  0  0  0
  5  6  2  0  0  0  0
  6  1  1  0  0  0  0
  6 31  1  0  0  0  0
  9  4  1  0  0  0  0
 10  5  1  0  0  0  0
 11  3  1  0  0  0  0
 12 11  1  0  0  0  0
 12 26  1  0  0  0  0
 13 14  2  0  0  0  0
 13 18  1  0  0  0  0
 14 15  1  0  0  0  0
 15 27  1  0  0  0  0
 15 16  2  0  0  0  0
 16 21  1  0  0  0  0
 17 16  1  0  0  0  0
 17 22  1  0  0  0  0
 18 17  2  0  0  0  0
 19 13  1  0  0  0  0
 20 14  1  0  0  0  0
 23 18  1  0  0  0  0
 23 24  2  0  0  0  0
 23 26  1  0  0  0  0
 25 23  2  0  0  0  0
 27 30  1  0  0  0  0
 28 27  1  0  0  0  0
 29 27  1  0  0  0  0
M  RAD  2  11   2  12   2
M  END
