Coordinates from ORCA-job Ph-N2-X-OTs-B3LYPG-6-31G_dp-scan-d09-49-n400
 OpenBabel08281821093D

 31 31  0  0  0  0  0  0  0  0999 V2000
    0.0160    1.4363   -0.6231 C   0  0  0  0  0  0  0  0  0  0  0  0
    1.0340    1.6111   -1.5569 C   0  0  0  0  0  0  0  0  0  0  0  0
    0.6854    2.0608   -2.8367 C   0  0  0  0  0  0  0  0  0  0  0  0
   -0.6353    2.3686   -3.1815 C   0  0  0  0  0  0  0  0  0  0  0  0
   -1.6397    2.1583   -2.2414 C   0  0  0  0  0  0  0  0  0  0  0  0
   -1.3147    1.6948   -0.9639 C   0  0  0  0  0  0  0  0  0  0  0  0
    0.2658    1.0901    0.3745 H   0  0  0  0  0  0  0  0  0  0  0  0
    2.0685    1.4298   -1.2996 H   0  0  0  0  0  0  0  0  0  0  0  0
   -0.8560    2.7443   -4.1743 H   0  0  0  0  0  0  0  0  0  0  0  0
   -2.6717    2.3696   -2.5017 H   0  0  0  0  0  0  0  0  0  0  0  0
    1.6682    2.3129   -3.8197 N   0  0  0  0  0  0  0  0  0  0  0  0
    2.6519    1.8559   -4.2466 N   0  0  0  0  0  0  0  0  0  0  0  0
    5.9225    1.0914   -5.2772 C   0  0  0  0  0  0  0  0  0  0  0  0
    7.2076    1.6218   -5.1707 C   0  0  0  0  0  0  0  0  0  0  0  0
    8.1115    1.1467   -4.2109 C   0  0  0  0  0  0  0  0  0  0  0  0
    7.6935    0.1178   -3.3538 C   0  0  0  0  0  0  0  0  0  0  0  0
    6.4129   -0.4225   -3.4460 C   0  0  0  0  0  0  0  0  0  0  0  0
    5.5304    0.0740   -4.4073 C   0  0  0  0  0  0  0  0  0  0  0  0
    5.2291    1.4486   -6.0306 H   0  0  0  0  0  0  0  0  0  0  0  0
    7.5145    2.4146   -5.8485 H   0  0  0  0  0  0  0  0  0  0  0  0
    8.3828   -0.2686   -2.6070 H   0  0  0  0  0  0  0  0  0  0  0  0
    6.0983   -1.2303   -2.7938 H   0  0  0  0  0  0  0  0  0  0  0  0
    3.8705   -0.5944   -4.5135 S   0  0  0  0  0  0  0  0  0  0  0  0
    3.9126   -1.9731   -4.0178 O   0  0  0  0  0  0  0  0  0  0  0  0
    3.3633   -0.3160   -5.8610 O   0  0  0  0  0  0  0  0  0  0  0  0
    3.0500    0.2699   -3.4473 O   0  0  0  0  0  0  0  0  0  0  0  0
    9.5127    1.7029   -4.1219 C   0  0  0  0  0  0  0  0  0  0  0  0
   10.2171    1.0882   -4.6956 H   0  0  0  0  0  0  0  0  0  0  0  0
    9.5662    2.7192   -4.5221 H   0  0  0  0  0  0  0  0  0  0  0  0
    9.8703    1.7248   -3.0879 H   0  0  0  0  0  0  0  0  0  0  0  0
   -2.0986    1.5436   -0.2283 H   0  0  0  0  0  0  0  0  0  0  0  0
  1  7  1  0  0  0  0
  2  8  1  0  0  0  0
  2  1  2  0  0  0  0
  3  2  1  0  0  0  0
  4  3  2  0  0  0  0
  4  5  1  0  0  0  0
  5  6  2  0  0  0  0
  6  1  1  0  0  0  0
  6 31  1  0  0  0  0
  9  4  1  0  0  0  0
 10  5  1  0  0  0  0
 11  3  1  0  0  0  0
 12 11  2  0  0  0  0
 13 14  2  0  0  0  0
 13 18  1  0  0  0  0
 14 15  1  0  0  0  0
 15 27  1  0  0  0  0
 15 16  2  0  0  0  0
 16 21  1  0  0  0  0
 17 16  1  0  0  0  0
 17 22  1  0  0  0  0
 18 17  2  0  0  0  0
 19 13  1  0  0  0  0
 20 14  1  0  0  0  0
 23 18  1  0  0  0  0
 23 24  2  0  0  0  0
 23 26  1  0  0  0  0
 25 23  2  0  0  0  0
 27 30  1  0  0  0  0
 28 27  1  0  0  0  0
 29 27  1  0  0  0  0
M  RAD  2  12   2  26   2
M  END
