Coordinates from ORCA-job Ph-N2-X-OTs-B3LYPG-6-31G_dp-scan-d09-49-n400
 OpenBabel08281821093D

 31 31  0  0  0  0  0  0  0  0999 V2000
   -0.5049    0.4471   -1.3893 C   0  0  0  0  0  0  0  0  0  0  0  0
    0.6727    1.0424   -1.8307 C   0  0  0  0  0  0  0  0  0  0  0  0
    0.5595    2.2262   -2.5780 C   0  0  0  0  0  0  0  0  0  0  0  0
   -0.6740    2.8180   -2.8806 C   0  0  0  0  0  0  0  0  0  0  0  0
   -1.8339    2.1997   -2.4286 C   0  0  0  0  0  0  0  0  0  0  0  0
   -1.7471    1.0175   -1.6859 C   0  0  0  0  0  0  0  0  0  0  0  0
   -0.4493   -0.4722   -0.8162 H   0  0  0  0  0  0  0  0  0  0  0  0
    1.6536    0.6318   -1.6254 H   0  0  0  0  0  0  0  0  0  0  0  0
   -0.7041    3.7343   -3.4594 H   0  0  0  0  0  0  0  0  0  0  0  0
   -2.8012    2.6350   -2.6548 H   0  0  0  0  0  0  0  0  0  0  0  0
    1.7037    2.8755   -3.0598 N   0  0  0  0  0  0  0  0  0  0  0  0
    2.8417    2.8839   -3.2029 N   0  0  0  0  0  0  0  0  0  0  0  0
    5.9569    1.2391   -5.0276 C   0  0  0  0  0  0  0  0  0  0  0  0
    7.2922    1.4679   -5.3568 C   0  0  0  0  0  0  0  0  0  0  0  0
    8.3315    0.9450   -4.5748 C   0  0  0  0  0  0  0  0  0  0  0  0
    7.9972    0.1818   -3.4468 C   0  0  0  0  0  0  0  0  0  0  0  0
    6.6674   -0.0569   -3.1058 C   0  0  0  0  0  0  0  0  0  0  0  0
    5.6512    0.4790   -3.8985 C   0  0  0  0  0  0  0  0  0  0  0  0
    5.1528    1.6300   -5.6409 H   0  0  0  0  0  0  0  0  0  0  0  0
    7.5318    2.0570   -6.2388 H   0  0  0  0  0  0  0  0  0  0  0  0
    8.7895   -0.2346   -2.8301 H   0  0  0  0  0  0  0  0  0  0  0  0
    6.4121   -0.6612   -2.2418 H   0  0  0  0  0  0  0  0  0  0  0  0
    3.9378    0.2026   -3.4444 S   0  0  0  0  0  0  0  0  0  0  0  0
    3.8575   -1.1292   -2.8248 O   0  0  0  0  0  0  0  0  0  0  0  0
    3.1142    0.4769   -4.6384 O   0  0  0  0  0  0  0  0  0  0  0  0
    3.6436    1.2746   -2.3481 O   0  0  0  0  0  0  0  0  0  0  0  0
    9.7752    1.1697   -4.9575 C   0  0  0  0  0  0  0  0  0  0  0  0
   10.1106    0.4232   -5.6887 H   0  0  0  0  0  0  0  0  0  0  0  0
    9.9205    2.1548   -5.4118 H   0  0  0  0  0  0  0  0  0  0  0  0
   10.4360    1.0954   -4.0888 H   0  0  0  0  0  0  0  0  0  0  0  0
   -2.6554    0.5367   -1.3361 H   0  0  0  0  0  0  0  0  0  0  0  0
  1  7  1  0  0  0  0
  2  8  1  0  0  0  0
  2  1  2  0  0  0  0
  3  2  1  0  0  0  0
  4  3  2  0  0  0  0
  4  5  1  0  0  0  0
  5  6  2  0  0  0  0
  6  1  1  0  0  0  0
  6 31  1  0  0  0  0
  9  4  1  0  0  0  0
 10  5  1  0  0  0  0
 11  3  1  0  0  0  0
 12 11  2  0  0  0  0
 13 18  1  0  0  0  0
 14 13  2  0  0  0  0
 14 15  1  0  0  0  0
 15 16  2  0  0  0  0
 16 17  1  0  0  0  0
 16 21  1  0  0  0  0
 17 22  1  0  0  0  0
 18 23  1  0  0  0  0
 18 17  2  0  0  0  0
 19 13  1  0  0  0  0
 20 14  1  0  0  0  0
 23 24  2  0  0  0  0
 23 26  1  0  0  0  0
 25 23  2  0  0  0  0
 27 15  1  0  0  0  0
 27 30  1  0  0  0  0
 28 27  1  0  0  0  0
 29 27  1  0  0  0  0
M  RAD  2  12   2  26   2
M  END
