Coordinates from ORCA-job Ph-N2-X-OTs-B3LYPG-6-31G_dp-scan-d09-49-n400
 OpenBabel08281821093D

 31 31  0  0  0  0  0  0  0  0999 V2000
   -0.5926    0.5798   -1.2721 C   0  0  0  0  0  0  0  0  0  0  0  0
    0.6169    1.0068   -1.8121 C   0  0  0  0  0  0  0  0  0  0  0  0
    0.5987    2.1549   -2.6211 C   0  0  0  0  0  0  0  0  0  0  0  0
   -0.5756    2.8721   -2.8871 C   0  0  0  0  0  0  0  0  0  0  0  0
   -1.7701    2.4217   -2.3369 C   0  0  0  0  0  0  0  0  0  0  0  0
   -1.7764    1.2780   -1.5321 C   0  0  0  0  0  0  0  0  0  0  0  0
   -0.6094   -0.3077   -0.6481 H   0  0  0  0  0  0  0  0  0  0  0  0
    1.5543    0.4929   -1.6395 H   0  0  0  0  0  0  0  0  0  0  0  0
   -0.5344    3.7542   -3.5164 H   0  0  0  0  0  0  0  0  0  0  0  0
   -2.6921    2.9578   -2.5347 H   0  0  0  0  0  0  0  0  0  0  0  0
    1.7734    2.6444   -3.2110 N   0  0  0  0  0  0  0  0  0  0  0  0
    2.8962    2.4789   -3.4093 N   0  0  0  0  0  0  0  0  0  0  0  0
    5.9386    1.1153   -5.0900 C   0  0  0  0  0  0  0  0  0  0  0  0
    7.2572    1.4897   -5.3484 C   0  0  0  0  0  0  0  0  0  0  0  0
    8.3068    1.0618   -4.5250 C   0  0  0  0  0  0  0  0  0  0  0  0
    8.0015    0.2429   -3.4270 C   0  0  0  0  0  0  0  0  0  0  0  0
    6.6902   -0.1405   -3.1567 C   0  0  0  0  0  0  0  0  0  0  0  0
    5.6617    0.3037   -3.9904 C   0  0  0  0  0  0  0  0  0  0  0  0
    5.1282    1.4330   -5.7363 H   0  0  0  0  0  0  0  0  0  0  0  0
    7.4755    2.1194   -6.2075 H   0  0  0  0  0  0  0  0  0  0  0  0
    8.8030   -0.1027   -2.7789 H   0  0  0  0  0  0  0  0  0  0  0  0
    6.4592   -0.7878   -2.3174 H   0  0  0  0  0  0  0  0  0  0  0  0
    3.9678   -0.1641   -3.6316 S   0  0  0  0  0  0  0  0  0  0  0  0
    3.9987   -1.5020   -3.0262 O   0  0  0  0  0  0  0  0  0  0  0  0
    3.1826    0.0525   -4.8592 O   0  0  0  0  0  0  0  0  0  0  0  0
    3.5099    0.8551   -2.5282 O   0  0  0  0  0  0  0  0  0  0  0  0
    9.7364    1.4425   -4.8290 C   0  0  0  0  0  0  0  0  0  0  0  0
   10.2433    0.6517   -5.3968 H   0  0  0  0  0  0  0  0  0  0  0  0
    9.7885    2.3575   -5.4264 H   0  0  0  0  0  0  0  0  0  0  0  0
   10.3122    1.6012   -3.9121 H   0  0  0  0  0  0  0  0  0  0  0  0
   -2.7109    0.9281   -1.1044 H   0  0  0  0  0  0  0  0  0  0  0  0
  1  7  1  0  0  0  0
  2  8  1  0  0  0  0
  2  1  2  0  0  0  0
  3  2  1  0  0  0  0
  4  3  2  0  0  0  0
  4  5  1  0  0  0  0
  5  6  2  0  0  0  0
  6  1  1  0  0  0  0
  6 31  1  0  0  0  0
  9  4  1  0  0  0  0
 10  5  1  0  0  0  0
 11  3  1  0  0  0  0
 12 11  2  0  0  0  0
 13 18  1  0  0  0  0
 14 13  2  0  0  0  0
 14 15  1  0  0  0  0
 15 16  2  0  0  0  0
 16 17  1  0  0  0  0
 16 21  1  0  0  0  0
 17 22  1  0  0  0  0
 18 23  1  0  0  0  0
 18 17  2  0  0  0  0
 19 13  1  0  0  0  0
 20 14  1  0  0  0  0
 23 24  2  0  0  0  0
 23 26  1  0  0  0  0
 25 23  2  0  0  0  0
 27 15  1  0  0  0  0
 27 30  1  0  0  0  0
 28 27  1  0  0  0  0
 29 27  1  0  0  0  0
M  RAD  2  12   2  26   2
M  END
