Coordinates from ORCA-job Ph-N2-X-OTs-B3LYPG-6-31G_dp-scan-d09-49-n400
 OpenBabel08281821093D

 31 31  0  0  0  0  0  0  0  0999 V2000
   -0.0708    1.2458   -0.7139 C   0  0  0  0  0  0  0  0  0  0  0  0
    0.9491    1.3402   -1.6570 C   0  0  0  0  0  0  0  0  0  0  0  0
    0.6741    2.0058   -2.8606 C   0  0  0  0  0  0  0  0  0  0  0  0
   -0.5732    2.5895   -3.1181 C   0  0  0  0  0  0  0  0  0  0  0  0
   -1.5841    2.4621   -2.1711 C   0  0  0  0  0  0  0  0  0  0  0  0
   -1.3319    1.7924   -0.9704 C   0  0  0  0  0  0  0  0  0  0  0  0
    0.1213    0.7374    0.2253 H   0  0  0  0  0  0  0  0  0  0  0  0
    1.9309    0.9298   -1.4725 H   0  0  0  0  0  0  0  0  0  0  0  0
   -0.7328    3.1138   -4.0537 H   0  0  0  0  0  0  0  0  0  0  0  0
   -2.5612    2.8921   -2.3640 H   0  0  0  0  0  0  0  0  0  0  0  0
    1.6534    2.1808   -3.8567 N   0  0  0  0  0  0  0  0  0  0  0  0
    2.6255    1.7105   -4.2911 N   0  0  0  0  0  0  0  0  0  0  0  0
    5.9087    1.0257   -5.2744 C   0  0  0  0  0  0  0  0  0  0  0  0
    7.1710    1.6127   -5.1904 C   0  0  0  0  0  0  0  0  0  0  0  0
    8.0974    1.2052   -4.2211 C   0  0  0  0  0  0  0  0  0  0  0  0
    7.7261    0.1864   -3.3307 C   0  0  0  0  0  0  0  0  0  0  0  0
    6.4687   -0.4090   -3.4000 C   0  0  0  0  0  0  0  0  0  0  0  0
    5.5625    0.0202   -4.3717 C   0  0  0  0  0  0  0  0  0  0  0  0
    5.1986    1.3291   -6.0356 H   0  0  0  0  0  0  0  0  0  0  0  0
    7.4429    2.3962   -5.8933 H   0  0  0  0  0  0  0  0  0  0  0  0
    8.4345   -0.1477   -2.5765 H   0  0  0  0  0  0  0  0  0  0  0  0
    6.1899   -1.2092   -2.7229 H   0  0  0  0  0  0  0  0  0  0  0  0
    3.9324   -0.7232   -4.4509 S   0  0  0  0  0  0  0  0  0  0  0  0
    4.0365   -2.0768   -3.8967 O   0  0  0  0  0  0  0  0  0  0  0  0
    3.4211   -0.5278   -5.8116 O   0  0  0  0  0  0  0  0  0  0  0  0
    3.0728    0.1484   -3.4281 O   0  0  0  0  0  0  0  0  0  0  0  0
    9.4745    1.8221   -4.1551 C   0  0  0  0  0  0  0  0  0  0  0  0
   10.2119    1.1953   -4.6717 H   0  0  0  0  0  0  0  0  0  0  0  0
    9.4943    2.8073   -4.6288 H   0  0  0  0  0  0  0  0  0  0  0  0
    9.8141    1.9342   -3.1208 H   0  0  0  0  0  0  0  0  0  0  0  0
   -2.1189    1.7017   -0.2277 H   0  0  0  0  0  0  0  0  0  0  0  0
  1  7  1  0  0  0  0
  2  8  1  0  0  0  0
  2  1  2  0  0  0  0
  3  2  1  0  0  0  0
  4  3  2  0  0  0  0
  4  5  1  0  0  0  0
  5  6  2  0  0  0  0
  6  1  1  0  0  0  0
  6 31  1  0  0  0  0
  9  4  1  0  0  0  0
 10  5  1  0  0  0  0
 11  3  1  0  0  0  0
 12 11  2  0  0  0  0
 13 14  2  0  0  0  0
 13 18  1  0  0  0  0
 14 15  1  0  0  0  0
 15 27  1  0  0  0  0
 15 16  2  0  0  0  0
 16 21  1  0  0  0  0
 17 16  1  0  0  0  0
 17 22  1  0  0  0  0
 18 17  2  0  0  0  0
 19 13  1  0  0  0  0
 20 14  1  0  0  0  0
 23 18  1  0  0  0  0
 23 24  2  0  0  0  0
 23 26  1  0  0  0  0
 25 23  2  0  0  0  0
 27 30  1  0  0  0  0
 28 27  1  0  0  0  0
 29 27  1  0  0  0  0
M  RAD  2  12   2  26   2
M  END
