Coordinates from ORCA-job Ph-N2-X-OTs-B3LYPG-6-31G_dp-scan-d09-49-n400
 OpenBabel08281821093D

 31 31  0  0  0  0  0  0  0  0999 V2000
   -0.0901    1.1944   -0.7438 C   0  0  0  0  0  0  0  0  0  0  0  0
    0.9247    1.2693   -1.6942 C   0  0  0  0  0  0  0  0  0  0  0  0
    0.6734    1.9913   -2.8707 C   0  0  0  0  0  0  0  0  0  0  0  0
   -0.5456    2.6451   -3.0946 C   0  0  0  0  0  0  0  0  0  0  0  0
   -1.5521    2.5385   -2.1405 C   0  0  0  0  0  0  0  0  0  0  0  0
   -1.3230    1.8151   -0.9664 C   0  0  0  0  0  0  0  0  0  0  0  0
    0.0837    0.6431    0.1745 H   0  0  0  0  0  0  0  0  0  0  0  0
    1.8847    0.7998   -1.5387 H   0  0  0  0  0  0  0  0  0  0  0  0
   -0.6872    3.2079   -4.0106 H   0  0  0  0  0  0  0  0  0  0  0  0
   -2.5077    3.0244   -2.3072 H   0  0  0  0  0  0  0  0  0  0  0  0
    1.6467    2.1486   -3.8746 N   0  0  0  0  0  0  0  0  0  0  0  0
    2.6126    1.6714   -4.3152 N   0  0  0  0  0  0  0  0  0  0  0  0
    5.9067    1.0032   -5.2807 C   0  0  0  0  0  0  0  0  0  0  0  0
    7.1621    1.6052   -5.1995 C   0  0  0  0  0  0  0  0  0  0  0  0
    8.0882    1.2219   -4.2201 C   0  0  0  0  0  0  0  0  0  0  0  0
    7.7238    0.2124   -3.3164 C   0  0  0  0  0  0  0  0  0  0  0  0
    6.4734   -0.3977   -3.3828 C   0  0  0  0  0  0  0  0  0  0  0  0
    5.5672    0.0073   -4.3650 C   0  0  0  0  0  0  0  0  0  0  0  0
    5.1969    1.2873   -6.0497 H   0  0  0  0  0  0  0  0  0  0  0  0
    7.4291    2.3811   -5.9125 H   0  0  0  0  0  0  0  0  0  0  0  0
    8.4323   -0.1028   -2.5542 H   0  0  0  0  0  0  0  0  0  0  0  0
    6.1998   -1.1911   -2.6955 H   0  0  0  0  0  0  0  0  0  0  0  0
    3.9462   -0.7564   -4.4414 S   0  0  0  0  0  0  0  0  0  0  0  0
    4.0632   -2.0996   -3.8649 O   0  0  0  0  0  0  0  0  0  0  0  0
    3.4405   -0.5882   -5.8077 O   0  0  0  0  0  0  0  0  0  0  0  0
    3.0711    0.1194   -3.4365 O   0  0  0  0  0  0  0  0  0  0  0  0
    9.4584    1.8545   -4.1569 C   0  0  0  0  0  0  0  0  0  0  0  0
   10.2059    1.2253   -4.6557 H   0  0  0  0  0  0  0  0  0  0  0  0
    9.4714    2.8303   -4.6498 H   0  0  0  0  0  0  0  0  0  0  0  0
    9.7894    1.9906   -3.1226 H   0  0  0  0  0  0  0  0  0  0  0  0
   -2.1065    1.7394   -0.2183 H   0  0  0  0  0  0  0  0  0  0  0  0
  1  7  1  0  0  0  0
  2  8  1  0  0  0  0
  2  1  2  0  0  0  0
  3  2  1  0  0  0  0
  4  3  2  0  0  0  0
  4  5  1  0  0  0  0
  5  6  2  0  0  0  0
  6  1  1  0  0  0  0
  6 31  1  0  0  0  0
  9  4  1  0  0  0  0
 10  5  1  0  0  0  0
 11  3  1  0  0  0  0
 12 11  2  0  0  0  0
 13 14  2  0  0  0  0
 13 18  1  0  0  0  0
 14 15  1  0  0  0  0
 15 27  1  0  0  0  0
 15 16  2  0  0  0  0
 16 21  1  0  0  0  0
 17 16  1  0  0  0  0
 17 22  1  0  0  0  0
 18 17  2  0  0  0  0
 19 13  1  0  0  0  0
 20 14  1  0  0  0  0
 23 18  1  0  0  0  0
 23 24  2  0  0  0  0
 23 26  1  0  0  0  0
 25 23  2  0  0  0  0
 27 30  1  0  0  0  0
 28 27  1  0  0  0  0
 29 27  1  0  0  0  0
M  RAD  2  12   2  26   2
M  END
