Coordinates from ORCA-job Ph-N2-X-OTs-B3LYPG-6-31G_dp-scan-d09-49-n400
 OpenBabel08281821093D

 31 31  0  0  0  0  0  0  0  0999 V2000
    0.0098    1.4082   -0.6367 C   0  0  0  0  0  0  0  0  0  0  0  0
    1.0262    1.5701   -1.5746 C   0  0  0  0  0  0  0  0  0  0  0  0
    0.6818    2.0523   -2.8439 C   0  0  0  0  0  0  0  0  0  0  0  0
   -0.6323    2.4023   -3.1741 C   0  0  0  0  0  0  0  0  0  0  0  0
   -1.6359    2.2049   -2.2306 C   0  0  0  0  0  0  0  0  0  0  0  0
   -1.3152    1.7104   -0.9635 C   0  0  0  0  0  0  0  0  0  0  0  0
    0.2562    1.0378    0.3530 H   0  0  0  0  0  0  0  0  0  0  0  0
    2.0566    1.3536   -1.3294 H   0  0  0  0  0  0  0  0  0  0  0  0
   -0.8487    2.8006   -4.1590 H   0  0  0  0  0  0  0  0  0  0  0  0
   -2.6633    2.4496   -2.4794 H   0  0  0  0  0  0  0  0  0  0  0  0
    1.6622    2.2917   -3.8314 N   0  0  0  0  0  0  0  0  0  0  0  0
    2.6442    1.8331   -4.2594 N   0  0  0  0  0  0  0  0  0  0  0  0
    5.9200    1.0827   -5.2747 C   0  0  0  0  0  0  0  0  0  0  0  0
    7.2018    1.6218   -5.1711 C   0  0  0  0  0  0  0  0  0  0  0  0
    8.1096    1.1553   -4.2107 C   0  0  0  0  0  0  0  0  0  0  0  0
    7.6990    0.1263   -3.3502 C   0  0  0  0  0  0  0  0  0  0  0  0
    6.4218   -0.4222   -3.4394 C   0  0  0  0  0  0  0  0  0  0  0  0
    5.5352    0.0655   -4.4013 C   0  0  0  0  0  0  0  0  0  0  0  0
    5.2238    1.4331   -6.0287 H   0  0  0  0  0  0  0  0  0  0  0  0
    7.5031    2.4144   -5.8515 H   0  0  0  0  0  0  0  0  0  0  0  0
    8.3917   -0.2535   -2.6030 H   0  0  0  0  0  0  0  0  0  0  0  0
    6.1129   -1.2301   -2.7846 H   0  0  0  0  0  0  0  0  0  0  0  0
    3.8794   -0.6140   -4.5040 S   0  0  0  0  0  0  0  0  0  0  0  0
    3.9304   -1.9888   -3.9979 O   0  0  0  0  0  0  0  0  0  0  0  0
    3.3725   -0.3496   -5.8544 O   0  0  0  0  0  0  0  0  0  0  0  0
    3.0526    0.2529   -3.4461 O   0  0  0  0  0  0  0  0  0  0  0  0
    9.5073    1.7207   -4.1247 C   0  0  0  0  0  0  0  0  0  0  0  0
   10.2165    1.1051   -4.6916 H   0  0  0  0  0  0  0  0  0  0  0  0
    9.5553    2.7337   -4.5341 H   0  0  0  0  0  0  0  0  0  0  0  0
    9.8631    1.7542   -3.0903 H   0  0  0  0  0  0  0  0  0  0  0  0
   -2.0981    1.5689   -0.2248 H   0  0  0  0  0  0  0  0  0  0  0  0
  1  7  1  0  0  0  0
  2  8  1  0  0  0  0
  2  1  2  0  0  0  0
  3  2  1  0  0  0  0
  4  3  2  0  0  0  0
  4  5  1  0  0  0  0
  5  6  2  0  0  0  0
  6  1  1  0  0  0  0
  6 31  1  0  0  0  0
  9  4  1  0  0  0  0
 10  5  1  0  0  0  0
 11  3  1  0  0  0  0
 12 11  2  0  0  0  0
 13 14  2  0  0  0  0
 13 18  1  0  0  0  0
 14 15  1  0  0  0  0
 15 27  1  0  0  0  0
 15 16  2  0  0  0  0
 16 21  1  0  0  0  0
 17 16  1  0  0  0  0
 17 22  1  0  0  0  0
 18 17  2  0  0  0  0
 19 13  1  0  0  0  0
 20 14  1  0  0  0  0
 23 18  1  0  0  0  0
 23 24  2  0  0  0  0
 23 26  1  0  0  0  0
 25 23  2  0  0  0  0
 27 30  1  0  0  0  0
 28 27  1  0  0  0  0
 29 27  1  0  0  0  0
M  RAD  2  12   2  26   2
M  END
