Coordinates from ORCA-job Ph-N2-X-OTs-B3LYPG-6-31G_dp-scan-d09-49-n400
 OpenBabel08281821093D

 31 31  0  0  0  0  0  0  0  0999 V2000
    0.4776   -0.0686   -2.1170 C   0  0  0  0  0  0  0  0  0  0  0  0
    0.9831    1.0008   -2.8865 C   0  0  0  0  0  0  0  0  0  0  0  0
    0.2770    2.1928   -2.6471 C   0  0  0  0  0  0  0  0  0  0  0  0
   -0.8158    2.4032   -1.7700 C   0  0  0  0  0  0  0  0  0  0  0  0
   -1.2458    1.3034   -1.0564 C   0  0  0  0  0  0  0  0  0  0  0  0
   -0.5939    0.0656   -1.2360 C   0  0  0  0  0  0  0  0  0  0  0  0
    0.9465   -1.0451   -2.2188 H   0  0  0  0  0  0  0  0  0  0  0  0
    2.1283    0.8335   -3.8088 H   0  0  0  0  0  0  0  0  0  0  0  0
   -1.2833    3.3776   -1.6684 H   0  0  0  0  0  0  0  0  0  0  0  0
   -2.0786    1.3931   -0.3670 H   0  0  0  0  0  0  0  0  0  0  0  0
    0.6963    3.3036   -3.3687 N   0  0  0  0  0  0  0  0  0  0  0  0
    1.0738    4.1656   -3.9665 N   0  0  0  0  0  0  0  0  0  0  0  0
    6.2337    0.6553   -5.5201 C   0  0  0  0  0  0  0  0  0  0  0  0
    7.5370    0.2650   -5.2159 C   0  0  0  0  0  0  0  0  0  0  0  0
    8.1099    0.5566   -3.9706 C   0  0  0  0  0  0  0  0  0  0  0  0
    7.3420    1.2629   -3.0327 C   0  0  0  0  0  0  0  0  0  0  0  0
    6.0375    1.6578   -3.3206 C   0  0  0  0  0  0  0  0  0  0  0  0
    5.4883    1.3466   -4.5652 C   0  0  0  0  0  0  0  0  0  0  0  0
    5.7991    0.4463   -6.4915 H   0  0  0  0  0  0  0  0  0  0  0  0
    8.1222   -0.2674   -5.9615 H   0  0  0  0  0  0  0  0  0  0  0  0
    7.7745    1.5136   -2.0672 H   0  0  0  0  0  0  0  0  0  0  0  0
    5.4511    2.2199   -2.6020 H   0  0  0  0  0  0  0  0  0  0  0  0
    3.8068    1.8322   -4.9450 S   0  0  0  0  0  0  0  0  0  0  0  0
    2.9677    0.5974   -4.4802 O   0  0  0  0  0  0  0  0  0  0  0  0
    3.7123    2.0059   -6.3975 O   0  0  0  0  0  0  0  0  0  0  0  0
    3.4732    2.9904   -4.0833 O   0  0  0  0  0  0  0  0  0  0  0  0
    9.5143    0.1112   -3.6376 C   0  0  0  0  0  0  0  0  0  0  0  0
    9.5053   -0.8169   -3.0522 H   0  0  0  0  0  0  0  0  0  0  0  0
   10.0993   -0.0782   -4.5420 H   0  0  0  0  0  0  0  0  0  0  0  0
   10.0423    0.8634   -3.0428 H   0  0  0  0  0  0  0  0  0  0  0  0
   -0.9422   -0.7967   -0.6728 H   0  0  0  0  0  0  0  0  0  0  0  0
  1  6  2  0  0  0  0
  2  3  2  0  0  0  0
  2  1  1  0  0  0  0
  3  4  1  0  0  0  0
  4  9  1  0  0  0  0
  4  5  2  0  0  0  0
  5 10  1  0  0  0  0
  6  5  1  0  0  0  0
  6 31  1  0  0  0  0
  7  1  1  0  0  0  0
 11  3  1  0  0  0  0
 12 11  1  0  0  0  0
 13 14  2  0  0  0  0
 13 18  1  0  0  0  0
 14 15  1  0  0  0  0
 15 27  1  0  0  0  0
 15 16  2  0  0  0  0
 16 21  1  0  0  0  0
 17 16  1  0  0  0  0
 17 22  1  0  0  0  0
 18 17  2  0  0  0  0
 19 13  1  0  0  0  0
 20 14  1  0  0  0  0
 23 18  1  0  0  0  0
 23 24  1  0  0  0  0
 23 26  2  0  0  0  0
 24  8  1  0  0  0  0
 25 23  2  0  0  0  0
 27 28  1  0  0  0  0
 27 30  1  0  0  0  0
 29 27  1  0  0  0  0
M  RAD  3   2   2  11   2  12   3
M  END
