Coordinates from ORCA-job Ph-N2-X-OTs-B3LYPG-6-31G_dp-scan-d09-49-n400
 OpenBabel08281821093D

 31 31  0  0  0  0  0  0  0  0999 V2000
   -0.3333    0.3430   -1.4030 C   0  0  0  0  0  0  0  0  0  0  0  0
    0.7221    1.0502   -1.9717 C   0  0  0  0  0  0  0  0  0  0  0  0
    0.4106    2.2470   -2.6372 C   0  0  0  0  0  0  0  0  0  0  0  0
   -0.8967    2.7419   -2.7424 C   0  0  0  0  0  0  0  0  0  0  0  0
   -1.9285    2.0163   -2.1596 C   0  0  0  0  0  0  0  0  0  0  0  0
   -1.6451    0.8190   -1.4933 C   0  0  0  0  0  0  0  0  0  0  0  0
   -0.1245   -0.5903   -0.8911 H   0  0  0  0  0  0  0  0  0  0  0  0
    1.7463    0.6999   -1.9183 H   0  0  0  0  0  0  0  0  0  0  0  0
   -1.0801    3.6705   -3.2711 H   0  0  0  0  0  0  0  0  0  0  0  0
   -2.9488    2.3788   -2.2267 H   0  0  0  0  0  0  0  0  0  0  0  0
    1.4180    3.0051   -3.2474 N   0  0  0  0  0  0  0  0  0  0  0  0
    2.5170    3.1767   -3.5142 N   0  0  0  0  0  0  0  0  0  0  0  0
    6.1055    1.3559   -5.1190 C   0  0  0  0  0  0  0  0  0  0  0  0
    7.4742    1.4334   -5.3710 C   0  0  0  0  0  0  0  0  0  0  0  0
    8.4046    0.8259   -4.5158 C   0  0  0  0  0  0  0  0  0  0  0  0
    7.9258    0.1334   -3.3947 C   0  0  0  0  0  0  0  0  0  0  0  0
    6.5602    0.0459   -3.1300 C   0  0  0  0  0  0  0  0  0  0  0  0
    5.6555    0.6630   -3.9947 C   0  0  0  0  0  0  0  0  0  0  0  0
    5.3850    1.8127   -5.7884 H   0  0  0  0  0  0  0  0  0  0  0  0
    7.8263    1.9702   -6.2487 H   0  0  0  0  0  0  0  0  0  0  0  0
    8.6321   -0.3464   -2.7218 H   0  0  0  0  0  0  0  0  0  0  0  0
    6.1908   -0.5029   -2.2704 H   0  0  0  0  0  0  0  0  0  0  0  0
    3.8990    0.5896   -3.6395 S   0  0  0  0  0  0  0  0  0  0  0  0
    3.6467   -0.6852   -2.9406 O   0  0  0  0  0  0  0  0  0  0  0  0
    3.1761    0.8379   -4.9039 O   0  0  0  0  0  0  0  0  0  0  0  0
    3.6492    1.7582   -2.6461 O   0  0  0  0  0  0  0  0  0  0  0  0
    9.8839    0.8884   -4.8144 C   0  0  0  0  0  0  0  0  0  0  0  0
   10.1809    0.0916   -5.5083 H   0  0  0  0  0  0  0  0  0  0  0  0
   10.1593    1.8404   -5.2790 H   0  0  0  0  0  0  0  0  0  0  0  0
   10.4812    0.7693   -3.9059 H   0  0  0  0  0  0  0  0  0  0  0  0
   -2.4540    0.2515   -1.0438 H   0  0  0  0  0  0  0  0  0  0  0  0
  1  7  1  0  0  0  0
  2  8  1  0  0  0  0
  2  1  2  0  0  0  0
  3  2  1  0  0  0  0
  4  3  2  0  0  0  0
  4  5  1  0  0  0  0
  5  6  2  0  0  0  0
  6  1  1  0  0  0  0
  6 31  1  0  0  0  0
  9  4  1  0  0  0  0
 10  5  1  0  0  0  0
 11  3  1  0  0  0  0
 12 11  2  0  0  0  0
 13 18  1  0  0  0  0
 14 13  2  0  0  0  0
 14 15  1  0  0  0  0
 15 16  2  0  0  0  0
 16 17  1  0  0  0  0
 16 21  1  0  0  0  0
 17 22  1  0  0  0  0
 18 23  1  0  0  0  0
 18 17  2  0  0  0  0
 19 13  1  0  0  0  0
 20 14  1  0  0  0  0
 23 24  2  0  0  0  0
 23 26  1  0  0  0  0
 25 23  2  0  0  0  0
 27 15  1  0  0  0  0
 27 30  1  0  0  0  0
 28 27  1  0  0  0  0
 29 27  1  0  0  0  0
M  RAD  2  12   2  26   2
M  END
