Coordinates from ORCA-job Ph-N2-X-OTs-B3LYPG-6-31G_dp-scan-d09-49-n400
 OpenBabel08281821093D

 31 31  0  0  0  0  0  0  0  0999 V2000
   -0.0053    1.3842   -0.6467 C   0  0  0  0  0  0  0  0  0  0  0  0
    1.0136    1.5369   -1.5833 C   0  0  0  0  0  0  0  0  0  0  0  0
    0.6787    2.0460   -2.8449 C   0  0  0  0  0  0  0  0  0  0  0  0
   -0.6279    2.4297   -3.1682 C   0  0  0  0  0  0  0  0  0  0  0  0
   -1.6347    2.2417   -2.2263 C   0  0  0  0  0  0  0  0  0  0  0  0
   -1.3235    1.7215   -0.9671 C   0  0  0  0  0  0  0  0  0  0  0  0
    0.2334    0.9936    0.3371 H   0  0  0  0  0  0  0  0  0  0  0  0
    2.0389    1.2925   -1.3438 H   0  0  0  0  0  0  0  0  0  0  0  0
   -0.8361    2.8467   -4.1472 H   0  0  0  0  0  0  0  0  0  0  0  0
   -2.6565    2.5132   -2.4698 H   0  0  0  0  0  0  0  0  0  0  0  0
    1.6608    2.2762   -3.8317 N   0  0  0  0  0  0  0  0  0  0  0  0
    2.6432    1.8183   -4.2586 N   0  0  0  0  0  0  0  0  0  0  0  0
    5.9185    1.0769   -5.2716 C   0  0  0  0  0  0  0  0  0  0  0  0
    7.1982    1.6219   -5.1729 C   0  0  0  0  0  0  0  0  0  0  0  0
    8.1110    1.1615   -4.2145 C   0  0  0  0  0  0  0  0  0  0  0  0
    7.7077    0.1323   -3.3506 C   0  0  0  0  0  0  0  0  0  0  0  0
    6.4326   -0.4220   -3.4348 C   0  0  0  0  0  0  0  0  0  0  0  0
    5.5409    0.0598   -4.3950 C   0  0  0  0  0  0  0  0  0  0  0  0
    5.2185    1.4224   -6.0242 H   0  0  0  0  0  0  0  0  0  0  0  0
    7.4940    2.4145   -5.8558 H   0  0  0  0  0  0  0  0  0  0  0  0
    8.4044   -0.2429   -2.6049 H   0  0  0  0  0  0  0  0  0  0  0  0
    6.1292   -1.2300   -2.7775 H   0  0  0  0  0  0  0  0  0  0  0  0
    3.8878   -0.6277   -4.4913 S   0  0  0  0  0  0  0  0  0  0  0  0
    3.9468   -2.0002   -3.9798 O   0  0  0  0  0  0  0  0  0  0  0  0
    3.3776   -0.3720   -5.8424 O   0  0  0  0  0  0  0  0  0  0  0  0
    3.0592    0.2400   -3.4366 O   0  0  0  0  0  0  0  0  0  0  0  0
    9.5065    1.7333   -4.1337 C   0  0  0  0  0  0  0  0  0  0  0  0
   10.2181    1.1155   -4.6951 H   0  0  0  0  0  0  0  0  0  0  0  0
    9.5501    2.7427   -4.5521 H   0  0  0  0  0  0  0  0  0  0  0  0
    9.8622    1.7775   -3.0997 H   0  0  0  0  0  0  0  0  0  0  0  0
   -2.1086    1.5869   -0.2294 H   0  0  0  0  0  0  0  0  0  0  0  0
  1  7  1  0  0  0  0
  2  8  1  0  0  0  0
  2  1  2  0  0  0  0
  3  2  1  0  0  0  0
  4  3  2  0  0  0  0
  4  5  1  0  0  0  0
  5  6  2  0  0  0  0
  6  1  1  0  0  0  0
  6 31  1  0  0  0  0
  9  4  1  0  0  0  0
 10  5  1  0  0  0  0
 11  3  1  0  0  0  0
 12 11  2  0  0  0  0
 13 14  2  0  0  0  0
 13 18  1  0  0  0  0
 14 15  1  0  0  0  0
 15 27  1  0  0  0  0
 15 16  2  0  0  0  0
 16 21  1  0  0  0  0
 17 16  1  0  0  0  0
 17 22  1  0  0  0  0
 18 17  2  0  0  0  0
 19 13  1  0  0  0  0
 20 14  1  0  0  0  0
 23 18  1  0  0  0  0
 23 24  2  0  0  0  0
 23 26  1  0  0  0  0
 25 23  2  0  0  0  0
 27 30  1  0  0  0  0
 28 27  1  0  0  0  0
 29 27  1  0  0  0  0
M  RAD  2  12   2  26   2
M  END
