Coordinates from ORCA-job Ph-N2-X-OTs-B3LYPG-6-31G_dp-scan-d09-49-n400
 OpenBabel08281821093D

 31 31  0  0  0  0  0  0  0  0999 V2000
   -0.6005    0.5114   -1.3790 C   0  0  0  0  0  0  0  0  0  0  0  0
    0.6290    0.9933   -1.8174 C   0  0  0  0  0  0  0  0  0  0  0  0
    0.6308    2.1796   -2.5691 C   0  0  0  0  0  0  0  0  0  0  0  0
   -0.5418    2.8819   -2.8783 C   0  0  0  0  0  0  0  0  0  0  0  0
   -1.7564    2.3756   -2.4302 C   0  0  0  0  0  0  0  0  0  0  0  0
   -1.7832    1.1935   -1.6831 C   0  0  0  0  0  0  0  0  0  0  0  0
   -0.6336   -0.4062   -0.8012 H   0  0  0  0  0  0  0  0  0  0  0  0
    1.5677    0.4957   -1.6077 H   0  0  0  0  0  0  0  0  0  0  0  0
   -0.4839    3.7951   -3.4599 H   0  0  0  0  0  0  0  0  0  0  0  0
   -2.6781    2.8983   -2.6622 H   0  0  0  0  0  0  0  0  0  0  0  0
    1.8304    2.7225   -3.0488 N   0  0  0  0  0  0  0  0  0  0  0  0
    2.9664    2.6096   -3.1835 N   0  0  0  0  0  0  0  0  0  0  0  0
    5.9031    1.1337   -5.0429 C   0  0  0  0  0  0  0  0  0  0  0  0
    7.2190    1.4724   -5.3591 C   0  0  0  0  0  0  0  0  0  0  0  0
    8.2897    1.0361   -4.5682 C   0  0  0  0  0  0  0  0  0  0  0  0
    8.0086    0.2452   -3.4434 C   0  0  0  0  0  0  0  0  0  0  0  0
    6.7007   -0.1028   -3.1162 C   0  0  0  0  0  0  0  0  0  0  0  0
    5.6505    0.3495   -3.9182 C   0  0  0  0  0  0  0  0  0  0  0  0
    5.0754    1.4589   -5.6631 H   0  0  0  0  0  0  0  0  0  0  0  0
    7.4179    2.0805   -6.2383 H   0  0  0  0  0  0  0  0  0  0  0  0
    8.8264   -0.1060   -2.8191 H   0  0  0  0  0  0  0  0  0  0  0  0
    6.4886   -0.7279   -2.2552 H   0  0  0  0  0  0  0  0  0  0  0  0
    3.9620   -0.0717   -3.4831 S   0  0  0  0  0  0  0  0  0  0  0  0
    3.9799   -1.4241   -2.9086 O   0  0  0  0  0  0  0  0  0  0  0  0
    3.1239    0.1905   -4.6679 O   0  0  0  0  0  0  0  0  0  0  0  0
    3.5908    0.9383   -2.3455 O   0  0  0  0  0  0  0  0  0  0  0  0
    9.7148    1.3786   -4.9330 C   0  0  0  0  0  0  0  0  0  0  0  0
   10.1815    0.5673   -5.5064 H   0  0  0  0  0  0  0  0  0  0  0  0
    9.7647    2.2827   -5.5470 H   0  0  0  0  0  0  0  0  0  0  0  0
   10.3289    1.5383   -4.0414 H   0  0  0  0  0  0  0  0  0  0  0  0
   -2.7336    0.8009   -1.3350 H   0  0  0  0  0  0  0  0  0  0  0  0
  1  7  1  0  0  0  0
  2  8  1  0  0  0  0
  2  1  2  0  0  0  0
  3  2  1  0  0  0  0
  4  3  2  0  0  0  0
  4  5  1  0  0  0  0
  5  6  2  0  0  0  0
  6  1  1  0  0  0  0
  6 31  1  0  0  0  0
  9  4  1  0  0  0  0
 10  5  1  0  0  0  0
 11  3  1  0  0  0  0
 12 11  2  0  0  0  0
 13 18  1  0  0  0  0
 14 13  2  0  0  0  0
 14 15  1  0  0  0  0
 15 16  2  0  0  0  0
 16 17  1  0  0  0  0
 16 21  1  0  0  0  0
 17 22  1  0  0  0  0
 18 23  1  0  0  0  0
 18 17  2  0  0  0  0
 19 13  1  0  0  0  0
 20 14  1  0  0  0  0
 23 24  2  0  0  0  0
 23 26  1  0  0  0  0
 25 23  2  0  0  0  0
 27 15  1  0  0  0  0
 27 30  1  0  0  0  0
 28 27  1  0  0  0  0
 29 27  1  0  0  0  0
M  RAD  2  12   2  26   2
M  END
