Coordinates from ORCA-job Ph-N2-X-OTs-B3LYPG-6-31G_dp-scan-d09-49-n400
 OpenBabel08281821093D

 31 31  0  0  0  0  0  0  0  0999 V2000
   -0.5766    0.6802   -1.1653 C   0  0  0  0  0  0  0  0  0  0  0  0
    0.6035    0.9845   -1.8378 C   0  0  0  0  0  0  0  0  0  0  0  0
    0.5968    2.0960   -2.6970 C   0  0  0  0  0  0  0  0  0  0  0  0
   -0.5407    2.8935   -2.8841 C   0  0  0  0  0  0  0  0  0  0  0  0
   -1.7068    2.5666   -2.2013 C   0  0  0  0  0  0  0  0  0  0  0  0
   -1.7228    1.4615   -1.3445 C   0  0  0  0  0  0  0  0  0  0  0  0
   -0.6003   -0.1764   -0.4993 H   0  0  0  0  0  0  0  0  0  0  0  0
    1.5089    0.4010   -1.7290 H   0  0  0  0  0  0  0  0  0  0  0  0
   -0.4938    3.7422   -3.5577 H   0  0  0  0  0  0  0  0  0  0  0  0
   -2.5995    3.1682   -2.3368 H   0  0  0  0  0  0  0  0  0  0  0  0
    1.7379    2.4700   -3.4239 N   0  0  0  0  0  0  0  0  0  0  0  0
    2.8260    2.1977   -3.7029 N   0  0  0  0  0  0  0  0  0  0  0  0
    5.9511    1.0385   -5.1606 C   0  0  0  0  0  0  0  0  0  0  0  0
    7.2545    1.5036   -5.3346 C   0  0  0  0  0  0  0  0  0  0  0  0
    8.2801    1.1324   -4.4550 C   0  0  0  0  0  0  0  0  0  0  0  0
    7.9663    0.2773   -3.3876 C   0  0  0  0  0  0  0  0  0  0  0  0
    6.6697   -0.1955   -3.2004 C   0  0  0  0  0  0  0  0  0  0  0  0
    5.6649    0.1934   -4.0888 C   0  0  0  0  0  0  0  0  0  0  0  0
    5.1612    1.3123   -5.8512 H   0  0  0  0  0  0  0  0  0  0  0  0
    7.4804    2.1604   -6.1711 H   0  0  0  0  0  0  0  0  0  0  0  0
    8.7499   -0.0258   -2.6976 H   0  0  0  0  0  0  0  0  0  0  0  0
    6.4327   -0.8704   -2.3850 H   0  0  0  0  0  0  0  0  0  0  0  0
    3.9880   -0.3912   -3.8388 S   0  0  0  0  0  0  0  0  0  0  0  0
    4.0701   -1.7076   -3.1946 O   0  0  0  0  0  0  0  0  0  0  0  0
    3.2779   -0.2523   -5.1194 O   0  0  0  0  0  0  0  0  0  0  0  0
    3.3833    0.6152   -2.7859 O   0  0  0  0  0  0  0  0  0  0  0  0
    9.6965    1.6117   -4.6682 C   0  0  0  0  0  0  0  0  0  0  0  0
   10.2879    0.8649   -5.2131 H   0  0  0  0  0  0  0  0  0  0  0  0
    9.7224    2.5371   -5.2510 H   0  0  0  0  0  0  0  0  0  0  0  0
   10.2048    1.7944   -3.7166 H   0  0  0  0  0  0  0  0  0  0  0  0
   -2.6349    1.2073   -0.8130 H   0  0  0  0  0  0  0  0  0  0  0  0
  1  7  1  0  0  0  0
  2  8  1  0  0  0  0
  2  1  2  0  0  0  0
  3  2  1  0  0  0  0
  4  3  2  0  0  0  0
  4  5  1  0  0  0  0
  5  6  2  0  0  0  0
  6  1  1  0  0  0  0
  6 31  1  0  0  0  0
  9  4  1  0  0  0  0
 10  5  1  0  0  0  0
 11  3  1  0  0  0  0
 12 11  2  0  0  0  0
 13 18  1  0  0  0  0
 14 13  2  0  0  0  0
 14 15  1  0  0  0  0
 15 16  2  0  0  0  0
 16 17  1  0  0  0  0
 16 21  1  0  0  0  0
 17 22  1  0  0  0  0
 18 23  1  0  0  0  0
 18 17  2  0  0  0  0
 19 13  1  0  0  0  0
 20 14  1  0  0  0  0
 23 24  2  0  0  0  0
 23 26  1  0  0  0  0
 25 23  2  0  0  0  0
 27 15  1  0  0  0  0
 27 30  1  0  0  0  0
 28 27  1  0  0  0  0
 29 27  1  0  0  0  0
M  RAD  2  12   2  26   2
M  END
