Coordinates from ORCA-job Ph-N2-X-OTs-B3LYPG-6-31G_dp-scan-d09-49-n400
 OpenBabel08281821093D

 31 31  0  0  0  0  0  0  0  0999 V2000
   -0.0536    1.2828   -0.6945 C   0  0  0  0  0  0  0  0  0  0  0  0
    0.9682    1.3956   -1.6335 C   0  0  0  0  0  0  0  0  0  0  0  0
    0.6750    2.0187   -2.8549 C   0  0  0  0  0  0  0  0  0  0  0  0
   -0.5921    2.5460   -3.1344 C   0  0  0  0  0  0  0  0  0  0  0  0
   -1.6041    2.3994   -2.1912 C   0  0  0  0  0  0  0  0  0  0  0  0
   -1.3341    1.7701   -0.9727 C   0  0  0  0  0  0  0  0  0  0  0  0
    0.1526    0.8064    0.2584 H   0  0  0  0  0  0  0  0  0  0  0  0
    1.9650    1.0320   -1.4307 H   0  0  0  0  0  0  0  0  0  0  0  0
   -0.7660    3.0416   -4.0830 H   0  0  0  0  0  0  0  0  0  0  0  0
   -2.5963    2.7846   -2.4010 H   0  0  0  0  0  0  0  0  0  0  0  0
    1.6574    2.2108   -3.8461 N   0  0  0  0  0  0  0  0  0  0  0  0
    2.6337    1.7448   -4.2764 N   0  0  0  0  0  0  0  0  0  0  0  0
    5.9111    1.0416   -5.2712 C   0  0  0  0  0  0  0  0  0  0  0  0
    7.1790    1.6159   -5.1851 C   0  0  0  0  0  0  0  0  0  0  0  0
    8.1034    1.1918   -4.2211 C   0  0  0  0  0  0  0  0  0  0  0  0
    7.7242    0.1694   -3.3383 C   0  0  0  0  0  0  0  0  0  0  0  0
    6.4611   -0.4134   -3.4098 C   0  0  0  0  0  0  0  0  0  0  0  0
    5.5571    0.0322   -4.3761 C   0  0  0  0  0  0  0  0  0  0  0  0
    5.2023    1.3582   -6.0284 H   0  0  0  0  0  0  0  0  0  0  0  0
    7.4567    2.4025   -5.8823 H   0  0  0  0  0  0  0  0  0  0  0  0
    8.4307   -0.1776   -2.5883 H   0  0  0  0  0  0  0  0  0  0  0  0
    6.1762   -1.2164   -2.7383 H   0  0  0  0  0  0  0  0  0  0  0  0
    3.9195   -0.6942   -4.4575 S   0  0  0  0  0  0  0  0  0  0  0  0
    4.0108   -2.0536   -3.9158 O   0  0  0  0  0  0  0  0  0  0  0  0
    3.4062   -0.4811   -5.8148 O   0  0  0  0  0  0  0  0  0  0  0  0
    3.0710    0.1770   -3.4244 O   0  0  0  0  0  0  0  0  0  0  0  0
    9.4864    1.7951   -4.1532 C   0  0  0  0  0  0  0  0  0  0  0  0
   10.2151    1.1699   -4.6838 H   0  0  0  0  0  0  0  0  0  0  0  0
    9.5126    2.7875   -4.6114 H   0  0  0  0  0  0  0  0  0  0  0  0
    9.8328    1.8878   -3.1192 H   0  0  0  0  0  0  0  0  0  0  0  0
   -2.1223    1.6654   -0.2332 H   0  0  0  0  0  0  0  0  0  0  0  0
  1  7  1  0  0  0  0
  2  8  1  0  0  0  0
  2  1  2  0  0  0  0
  3  2  1  0  0  0  0
  4  3  2  0  0  0  0
  4  5  1  0  0  0  0
  5  6  2  0  0  0  0
  6  1  1  0  0  0  0
  6 31  1  0  0  0  0
  9  4  1  0  0  0  0
 10  5  1  0  0  0  0
 11  3  1  0  0  0  0
 12 11  2  0  0  0  0
 13 14  2  0  0  0  0
 13 18  1  0  0  0  0
 14 15  1  0  0  0  0
 15 27  1  0  0  0  0
 15 16  2  0  0  0  0
 16 21  1  0  0  0  0
 17 16  1  0  0  0  0
 17 22  1  0  0  0  0
 18 17  2  0  0  0  0
 19 13  1  0  0  0  0
 20 14  1  0  0  0  0
 23 18  1  0  0  0  0
 23 24  2  0  0  0  0
 23 26  1  0  0  0  0
 25 23  2  0  0  0  0
 27 30  1  0  0  0  0
 28 27  1  0  0  0  0
 29 27  1  0  0  0  0
M  RAD  2  12   2  26   2
M  END
