Coordinates from ORCA-job Ph-N2-X-OTs-B3LYPG-6-31G_dp-scan-d09-49-n400
 OpenBabel08281821093D

 31 31  0  0  0  0  0  0  0  0999 V2000
   -0.1934    0.3095   -1.3646 C   0  0  0  0  0  0  0  0  0  0  0  0
    0.7087    0.9695   -2.1953 C   0  0  0  0  0  0  0  0  0  0  0  0
    0.2852    2.1798   -2.7666 C   0  0  0  0  0  0  0  0  0  0  0  0
   -0.9858    2.7267   -2.5415 C   0  0  0  0  0  0  0  0  0  0  0  0
   -1.8578    2.0507   -1.6968 C   0  0  0  0  0  0  0  0  0  0  0  0
   -1.4604    0.8437   -1.1116 C   0  0  0  0  0  0  0  0  0  0  0  0
    0.1017   -0.6328   -0.9156 H   0  0  0  0  0  0  0  0  0  0  0  0
    1.6911    0.5605   -2.4063 H   0  0  0  0  0  0  0  0  0  0  0  0
   -1.2628    3.6603   -3.0181 H   0  0  0  0  0  0  0  0  0  0  0  0
   -2.8437    2.4578   -1.4998 H   0  0  0  0  0  0  0  0  0  0  0  0
    1.1288    2.8973   -3.6276 N   0  0  0  0  0  0  0  0  0  0  0  0
    2.1594    3.0870   -4.0871 N   0  0  0  0  0  0  0  0  0  0  0  0
    6.2432    1.3722   -5.2810 C   0  0  0  0  0  0  0  0  0  0  0  0
    7.6346    1.4176   -5.3556 C   0  0  0  0  0  0  0  0  0  0  0  0
    8.4338    0.8142   -4.3746 C   0  0  0  0  0  0  0  0  0  0  0  0
    7.7997    0.1584   -3.3094 C   0  0  0  0  0  0  0  0  0  0  0  0
    6.4101    0.1034   -3.2214 C   0  0  0  0  0  0  0  0  0  0  0  0
    5.6378    0.7156   -4.2095 C   0  0  0  0  0  0  0  0  0  0  0  0
    5.6253    1.8262   -6.0480 H   0  0  0  0  0  0  0  0  0  0  0  0
    8.1081    1.9258   -6.1923 H   0  0  0  0  0  0  0  0  0  0  0  0
    8.4026   -0.3181   -2.5403 H   0  0  0  0  0  0  0  0  0  0  0  0
    5.9209   -0.4165   -2.4048 H   0  0  0  0  0  0  0  0  0  0  0  0
    3.8492    0.6853   -4.0848 S   0  0  0  0  0  0  0  0  0  0  0  0
    3.4842   -0.5498   -3.3573 O   0  0  0  0  0  0  0  0  0  0  0  0
    3.2978    0.8658   -5.4414 O   0  0  0  0  0  0  0  0  0  0  0  0
    3.5119    1.9094   -3.1911 O   0  0  0  0  0  0  0  0  0  0  0  0
    9.9404    0.8392   -4.4795 C   0  0  0  0  0  0  0  0  0  0  0  0
   10.3143   -0.0460   -5.0101 H   0  0  0  0  0  0  0  0  0  0  0  0
   10.2897    1.7183   -5.0293 H   0  0  0  0  0  0  0  0  0  0  0  0
   10.4115    0.8468   -3.4921 H   0  0  0  0  0  0  0  0  0  0  0  0
   -2.1467    0.3129   -0.4584 H   0  0  0  0  0  0  0  0  0  0  0  0
  1  6  1  0  0  0  0
  1  7  1  0  0  0  0
  2  1  2  0  0  0  0
  3  4  2  0  0  0  0
  3  2  1  0  0  0  0
  4  5  1  0  0  0  0
  5 10  1  0  0  0  0
  5  6  2  0  0  0  0
  6 31  1  0  0  0  0
  8  2  1  0  0  0  0
  9  4  1  0  0  0  0
 11  3  1  0  0  0  0
 12 11  2  0  0  0  0
 13 18  1  0  0  0  0
 14 13  2  0  0  0  0
 14 15  1  0  0  0  0
 15 16  2  0  0  0  0
 16 17  1  0  0  0  0
 16 21  1  0  0  0  0
 17 22  1  0  0  0  0
 18 23  1  0  0  0  0
 18 17  2  0  0  0  0
 19 13  1  0  0  0  0
 20 14  1  0  0  0  0
 23 24  2  0  0  0  0
 23 26  1  0  0  0  0
 25 23  2  0  0  0  0
 27 15  1  0  0  0  0
 27 30  1  0  0  0  0
 28 27  1  0  0  0  0
 29 27  1  0  0  0  0
M  RAD  2  12   2  26   2
M  END
