Coordinates from ORCA-job Ph-N2-X-OTs-B3LYPG-6-31G_dp-scan-d09-49-n400
 OpenBabel08281821093D

 31 31  0  0  0  0  0  0  0  0999 V2000
   -0.5676    0.4684   -1.4155 C   0  0  0  0  0  0  0  0  0  0  0  0
    0.6490    1.0025   -1.8282 C   0  0  0  0  0  0  0  0  0  0  0  0
    0.6170    2.2025   -2.5572 C   0  0  0  0  0  0  0  0  0  0  0  0
   -0.5762    2.8680   -2.8687 C   0  0  0  0  0  0  0  0  0  0  0  0
   -1.7772    2.3099   -2.4463 C   0  0  0  0  0  0  0  0  0  0  0  0
   -1.7704    1.1132   -1.7223 C   0  0  0  0  0  0  0  0  0  0  0  0
   -0.5744   -0.4611   -0.8561 H   0  0  0  0  0  0  0  0  0  0  0  0
    1.6017    0.5344   -1.6136 H   0  0  0  0  0  0  0  0  0  0  0  0
   -0.5442    3.7938   -3.4320 H   0  0  0  0  0  0  0  0  0  0  0  0
   -2.7142    2.8034   -2.6805 H   0  0  0  0  0  0  0  0  0  0  0  0
    1.8021    2.7971   -3.0108 N   0  0  0  0  0  0  0  0  0  0  0  0
    2.9426    2.7324   -3.1330 N   0  0  0  0  0  0  0  0  0  0  0  0
    5.9108    1.1704   -5.0297 C   0  0  0  0  0  0  0  0  0  0  0  0
    7.2332    1.4645   -5.3632 C   0  0  0  0  0  0  0  0  0  0  0  0
    8.2983    1.0000   -4.5809 C   0  0  0  0  0  0  0  0  0  0  0  0
    8.0050    0.2266   -3.4471 C   0  0  0  0  0  0  0  0  0  0  0  0
    6.6905   -0.0771   -3.1026 C   0  0  0  0  0  0  0  0  0  0  0  0
    5.6463    0.4028   -3.8963 C   0  0  0  0  0  0  0  0  0  0  0  0
    5.0868    1.5175   -5.6429 H   0  0  0  0  0  0  0  0  0  0  0  0
    7.4412    2.0596   -6.2491 H   0  0  0  0  0  0  0  0  0  0  0  0
    8.8183   -0.1456   -2.8292 H   0  0  0  0  0  0  0  0  0  0  0  0
    6.4684   -0.6884   -2.2343 H   0  0  0  0  0  0  0  0  0  0  0  0
    3.9504    0.0413   -3.4377 S   0  0  0  0  0  0  0  0  0  0  0  0
    3.9300   -1.3064   -2.8512 O   0  0  0  0  0  0  0  0  0  0  0  0
    3.1064    0.3175   -4.6158 O   0  0  0  0  0  0  0  0  0  0  0  0
    3.6239    1.0716   -2.3067 O   0  0  0  0  0  0  0  0  0  0  0  0
    9.7293    1.2944   -4.9640 C   0  0  0  0  0  0  0  0  0  0  0  0
   10.1623    0.4667   -5.5403 H   0  0  0  0  0  0  0  0  0  0  0  0
    9.8013    2.1945   -5.5818 H   0  0  0  0  0  0  0  0  0  0  0  0
   10.3591    1.4368   -4.0804 H   0  0  0  0  0  0  0  0  0  0  0  0
   -2.7102    0.6798   -1.3945 H   0  0  0  0  0  0  0  0  0  0  0  0
  1  7  1  0  0  0  0
  2  8  1  0  0  0  0
  2  1  2  0  0  0  0
  3  2  1  0  0  0  0
  4  3  2  0  0  0  0
  4  5  1  0  0  0  0
  5  6  2  0  0  0  0
  6  1  1  0  0  0  0
  6 31  1  0  0  0  0
  9  4  1  0  0  0  0
 10  5  1  0  0  0  0
 11  3  1  0  0  0  0
 12 11  2  0  0  0  0
 13 18  1  0  0  0  0
 14 13  2  0  0  0  0
 14 15  1  0  0  0  0
 15 16  2  0  0  0  0
 16 17  1  0  0  0  0
 16 21  1  0  0  0  0
 17 22  1  0  0  0  0
 18 23  1  0  0  0  0
 18 17  2  0  0  0  0
 19 13  1  0  0  0  0
 20 14  1  0  0  0  0
 23 24  2  0  0  0  0
 23 26  1  0  0  0  0
 25 23  2  0  0  0  0
 27 15  1  0  0  0  0
 27 30  1  0  0  0  0
 28 27  1  0  0  0  0
 29 27  1  0  0  0  0
M  RAD  2  12   2  26   2
M  END
