Coordinates from ORCA-job Ph-N2-X-OTs-B3LYPG-6-31G_dp-scan-d09-49-n400
 OpenBabel08281821093D

 31 31  0  0  0  0  0  0  0  0999 V2000
    0.0948    0.1988   -1.4467 C   0  0  0  0  0  0  0  0  0  0  0  0
    0.7872    0.9133   -2.4235 C   0  0  0  0  0  0  0  0  0  0  0  0
    0.2192    2.1320   -2.8263 C   0  0  0  0  0  0  0  0  0  0  0  0
   -0.9862    2.6380   -2.3168 C   0  0  0  0  0  0  0  0  0  0  0  0
   -1.6387    1.9034   -1.3358 C   0  0  0  0  0  0  0  0  0  0  0  0
   -1.0974    0.6857   -0.9043 C   0  0  0  0  0  0  0  0  0  0  0  0
    0.4974   -0.7516   -1.1126 H   0  0  0  0  0  0  0  0  0  0  0  0
    1.7148    0.5311   -2.8731 H   0  0  0  0  0  0  0  0  0  0  0  0
   -1.3776    3.5817   -2.6795 H   0  0  0  0  0  0  0  0  0  0  0  0
   -2.5674    2.2715   -0.9140 H   0  0  0  0  0  0  0  0  0  0  0  0
    0.8598    2.8914   -3.8118 N   0  0  0  0  0  0  0  0  0  0  0  0
    1.7342    3.2333   -4.4513 N   0  0  0  0  0  0  0  0  0  0  0  0
    6.3424    1.3545   -5.4510 C   0  0  0  0  0  0  0  0  0  0  0  0
    7.7325    1.2695   -5.3678 C   0  0  0  0  0  0  0  0  0  0  0  0
    8.3599    0.7373   -4.2341 C   0  0  0  0  0  0  0  0  0  0  0  0
    7.5548    0.2859   -3.1765 C   0  0  0  0  0  0  0  0  0  0  0  0
    6.1664    0.3629   -3.2453 C   0  0  0  0  0  0  0  0  0  0  0  0
    5.5659    0.9014   -4.3855 C   0  0  0  0  0  0  0  0  0  0  0  0
    5.8553    1.7536   -6.3340 H   0  0  0  0  0  0  0  0  0  0  0  0
    8.3390    1.6189   -6.1997 H   0  0  0  0  0  0  0  0  0  0  0  0
    8.0236   -0.1340   -2.2895 H   0  0  0  0  0  0  0  0  0  0  0  0
    5.5458   -0.0017   -2.4342 H   0  0  0  0  0  0  0  0  0  0  0  0
    3.7805    1.0439   -4.4741 S   0  0  0  0  0  0  0  0  0  0  0  0
    3.2218   -0.1115   -3.7159 O   0  0  0  0  0  0  0  0  0  0  0  0
    3.4019    1.1346   -5.8958 O   0  0  0  0  0  0  0  0  0  0  0  0
    3.4794    2.3453   -3.7140 O   0  0  0  0  0  0  0  0  0  0  0  0
    9.8640    0.6245   -4.1558 C   0  0  0  0  0  0  0  0  0  0  0  0
   10.1905   -0.4140   -4.2905 H   0  0  0  0  0  0  0  0  0  0  0  0
   10.3523    1.2256   -4.9275 H   0  0  0  0  0  0  0  0  0  0  0  0
   10.2397    0.9550   -3.1816 H   0  0  0  0  0  0  0  0  0  0  0  0
   -1.6164    0.1102   -0.1435 H   0  0  0  0  0  0  0  0  0  0  0  0
  1  7  1  0  0  0  0
  1  6  2  0  0  0  0
  2  1  1  0  0  0  0
  3  2  2  0  0  0  0
  3  4  1  0  0  0  0
  4  5  2  0  0  0  0
  5 10  1  0  0  0  0
  5  6  1  0  0  0  0
  6 31  1  0  0  0  0
  8  2  1  0  0  0  0
  9  4  1  0  0  0  0
 11  3  1  0  0  0  0
 12 11  1  0  0  0  0
 13 14  2  0  0  0  0
 13 18  1  0  0  0  0
 14 15  1  0  0  0  0
 15 27  1  0  0  0  0
 15 16  2  0  0  0  0
 16 21  1  0  0  0  0
 17 16  1  0  0  0  0
 17 22  1  0  0  0  0
 18 17  2  0  0  0  0
 19 13  1  0  0  0  0
 20 14  1  0  0  0  0
 23 18  1  0  0  0  0
 23 24  2  0  0  0  0
 23 26  1  0  0  0  0
 25 23  2  0  0  0  0
 27 30  1  0  0  0  0
 28 27  1  0  0  0  0
 29 27  1  0  0  0  0
M  RAD  3  11   2  12   3  26   2
M  END
