Coordinates from ORCA-job Ph-N2-X-OTs-B3LYPG-6-31G_dp-scan-d09-49-n400
 OpenBabel08281821093D

 31 31  0  0  0  0  0  0  0  0999 V2000
   -0.5963    0.5039   -1.3866 C   0  0  0  0  0  0  0  0  0  0  0  0
    0.6319    0.9942   -1.8191 C   0  0  0  0  0  0  0  0  0  0  0  0
    0.6295    2.1833   -2.5664 C   0  0  0  0  0  0  0  0  0  0  0  0
   -0.5459    2.8803   -2.8769 C   0  0  0  0  0  0  0  0  0  0  0  0
   -1.7591    2.3657   -2.4347 C   0  0  0  0  0  0  0  0  0  0  0  0
   -1.7818    1.1806   -1.6921 C   0  0  0  0  0  0  0  0  0  0  0  0
   -0.6263   -0.4161   -0.8124 H   0  0  0  0  0  0  0  0  0  0  0  0
    1.5727    0.5011   -1.6079 H   0  0  0  0  0  0  0  0  0  0  0  0
   -0.4911    3.7960   -3.4549 H   0  0  0  0  0  0  0  0  0  0  0  0
   -2.6829    2.8841   -2.6677 H   0  0  0  0  0  0  0  0  0  0  0  0
    1.8278    2.7343   -3.0398 N   0  0  0  0  0  0  0  0  0  0  0  0
    2.9648    2.6296   -3.1712 N   0  0  0  0  0  0  0  0  0  0  0  0
    5.9033    1.1391   -5.0399 C   0  0  0  0  0  0  0  0  0  0  0  0
    7.2201    1.4709   -5.3599 C   0  0  0  0  0  0  0  0  0  0  0  0
    8.2906    1.0306   -4.5710 C   0  0  0  0  0  0  0  0  0  0  0  0
    8.0085    0.2427   -3.4444 C   0  0  0  0  0  0  0  0  0  0  0  0
    6.6997   -0.0984   -3.1133 C   0  0  0  0  0  0  0  0  0  0  0  0
    5.6497    0.3578   -3.9134 C   0  0  0  0  0  0  0  0  0  0  0  0
    5.0756    1.4675   -5.6583 H   0  0  0  0  0  0  0  0  0  0  0  0
    7.4196    2.0767   -6.2405 H   0  0  0  0  0  0  0  0  0  0  0  0
    8.8261   -0.1115   -2.8215 H   0  0  0  0  0  0  0  0  0  0  0  0
    6.4868   -0.7211   -2.2508 H   0  0  0  0  0  0  0  0  0  0  0  0
    3.9603   -0.0542   -3.4730 S   0  0  0  0  0  0  0  0  0  0  0  0
    3.9726   -1.4064   -2.8980 O   0  0  0  0  0  0  0  0  0  0  0  0
    3.1201    0.2113   -4.6558 O   0  0  0  0  0  0  0  0  0  0  0  0
    3.5974    0.9582   -2.3355 O   0  0  0  0  0  0  0  0  0  0  0  0
    9.7164    1.3656   -4.9399 C   0  0  0  0  0  0  0  0  0  0  0  0
   10.1777    0.5514   -5.5135 H   0  0  0  0  0  0  0  0  0  0  0  0
    9.7692    2.2687   -5.5552 H   0  0  0  0  0  0  0  0  0  0  0  0
   10.3336    1.5235   -4.0501 H   0  0  0  0  0  0  0  0  0  0  0  0
   -2.7311    0.7815   -1.3486 H   0  0  0  0  0  0  0  0  0  0  0  0
  1  7  1  0  0  0  0
  2  8  1  0  0  0  0
  2  1  2  0  0  0  0
  3  2  1  0  0  0  0
  4  3  2  0  0  0  0
  4  5  1  0  0  0  0
  5  6  2  0  0  0  0
  6  1  1  0  0  0  0
  6 31  1  0  0  0  0
  9  4  1  0  0  0  0
 10  5  1  0  0  0  0
 11  3  1  0  0  0  0
 12 11  2  0  0  0  0
 13 18  1  0  0  0  0
 14 13  2  0  0  0  0
 14 15  1  0  0  0  0
 15 16  2  0  0  0  0
 16 17  1  0  0  0  0
 16 21  1  0  0  0  0
 17 22  1  0  0  0  0
 18 23  1  0  0  0  0
 18 17  2  0  0  0  0
 19 13  1  0  0  0  0
 20 14  1  0  0  0  0
 23 24  2  0  0  0  0
 23 26  1  0  0  0  0
 25 23  2  0  0  0  0
 27 15  1  0  0  0  0
 27 30  1  0  0  0  0
 28 27  1  0  0  0  0
 29 27  1  0  0  0  0
M  RAD  2  12   2  26   2
M  END
