Coordinates from ORCA-job Ph-N2-X-OTs-B3LYPG-6-31G_dp-scan-d09-49-n400
 OpenBabel08281821093D

 31 32  0  0  0  0  0  0  0  0999 V2000
    0.0325    1.4469   -0.6204 C   0  0  0  0  0  0  0  0  0  0  0  0
    1.0459    1.6274   -1.5582 C   0  0  0  0  0  0  0  0  0  0  0  0
    0.6889    2.0646   -2.8398 C   0  0  0  0  0  0  0  0  0  0  0  0
   -0.6357    2.3554   -3.1831 C   0  0  0  0  0  0  0  0  0  0  0  0
   -1.6352    2.1395   -2.2390 C   0  0  0  0  0  0  0  0  0  0  0  0
   -1.3018    1.6880   -0.9593 C   0  0  0  0  0  0  0  0  0  0  0  0
    0.2890    1.1101    0.3788 H   0  0  0  0  0  0  0  0  0  0  0  0
    2.0832    1.4596   -1.3025 H   0  0  0  0  0  0  0  0  0  0  0  0
   -0.8635    2.7225   -4.1776 H   0  0  0  0  0  0  0  0  0  0  0  0
   -2.6702    2.3371   -2.4980 H   0  0  0  0  0  0  0  0  0  0  0  0
    1.6683    2.3229   -3.8261 N   0  0  0  0  0  0  0  0  0  0  0  0
    2.6495    1.8614   -4.2556 N   0  0  0  0  0  0  0  0  0  0  0  0
    5.9224    1.0924   -5.2813 C   0  0  0  0  0  0  0  0  0  0  0  0
    7.2082    1.6203   -5.1699 C   0  0  0  0  0  0  0  0  0  0  0  0
    8.1069    1.1444   -4.2057 C   0  0  0  0  0  0  0  0  0  0  0  0
    7.6832    0.1173   -3.3492 C   0  0  0  0  0  0  0  0  0  0  0  0
    6.4019   -0.4204   -3.4462 C   0  0  0  0  0  0  0  0  0  0  0  0
    5.5247    0.0767   -4.4119 C   0  0  0  0  0  0  0  0  0  0  0  0
    5.2329    1.4502   -6.0379 H   0  0  0  0  0  0  0  0  0  0  0  0
    7.5195    2.4116   -5.8474 H   0  0  0  0  0  0  0  0  0  0  0  0
    8.3685   -0.2695   -2.5990 H   0  0  0  0  0  0  0  0  0  0  0  0
    6.0830   -1.2268   -2.7943 H   0  0  0  0  0  0  0  0  0  0  0  0
    3.8641   -0.5883   -4.5244 S   0  0  0  0  0  0  0  0  0  0  0  0
    3.9004   -1.9665   -4.0271 O   0  0  0  0  0  0  0  0  0  0  0  0
    3.3622   -0.3088   -5.8736 O   0  0  0  0  0  0  0  0  0  0  0  0
    3.0409    0.2776   -3.4606 O   0  0  0  0  0  0  0  0  0  0  0  0
    9.5089    1.6978   -4.1115 C   0  0  0  0  0  0  0  0  0  0  0  0
   10.2135    1.0840   -4.6858 H   0  0  0  0  0  0  0  0  0  0  0  0
    9.5652    2.7155   -4.5079 H   0  0  0  0  0  0  0  0  0  0  0  0
    9.8641    1.7154   -3.0766 H   0  0  0  0  0  0  0  0  0  0  0  0
   -2.0822    1.5327   -0.2208 H   0  0  0  0  0  0  0  0  0  0  0  0
  1  7  1  0  0  0  0
  2  8  1  0  0  0  0
  2  1  2  0  0  0  0
  3  2  1  0  0  0  0
  4  3  2  0  0  0  0
  4  5  1  0  0  0  0
  5  6  2  0  0  0  0
  6  1  1  0  0  0  0
  6 31  1  0  0  0  0
  9  4  1  0  0  0  0
 10  5  1  0  0  0  0
 11  3  1  0  0  0  0
 12 11  1  0  0  0  0
 12 26  1  0  0  0  0
 13 14  2  0  0  0  0
 13 18  1  0  0  0  0
 14 15  1  0  0  0  0
 15 27  1  0  0  0  0
 15 16  2  0  0  0  0
 16 21  1  0  0  0  0
 17 16  1  0  0  0  0
 17 22  1  0  0  0  0
 18 17  2  0  0  0  0
 19 13  1  0  0  0  0
 20 14  1  0  0  0  0
 23 18  1  0  0  0  0
 23 24  2  0  0  0  0
 23 26  1  0  0  0  0
 25 23  2  0  0  0  0
 27 30  1  0  0  0  0
 28 27  1  0  0  0  0
 29 27  1  0  0  0  0
M  RAD  2  11   2  12   2
M  END
