Coordinates from ORCA-job Ph-N2-X-OTs-B3LYPG-6-31G_dp-scan-d09-49-n400
 OpenBabel08281821093D

 31 31  0  0  0  0  0  0  0  0999 V2000
    0.0109    0.2203   -1.4270 C   0  0  0  0  0  0  0  0  0  0  0  0
    0.7536    0.9160   -2.3796 C   0  0  0  0  0  0  0  0  0  0  0  0
    0.2228    2.1378   -2.8215 C   0  0  0  0  0  0  0  0  0  0  0  0
   -0.9965    2.6633   -2.3686 C   0  0  0  0  0  0  0  0  0  0  0  0
   -1.7014    1.9487   -1.4089 C   0  0  0  0  0  0  0  0  0  0  0  0
   -1.1969    0.7290   -0.9416 C   0  0  0  0  0  0  0  0  0  0  0  0
    0.3860   -0.7316   -1.0668 H   0  0  0  0  0  0  0  0  0  0  0  0
    1.6898    0.5162   -2.7804 H   0  0  0  0  0  0  0  0  0  0  0  0
   -1.3592    3.6076   -2.7584 H   0  0  0  0  0  0  0  0  0  0  0  0
   -2.6423    2.3342   -1.0320 H   0  0  0  0  0  0  0  0  0  0  0  0
    0.9106    2.8816   -3.7882 N   0  0  0  0  0  0  0  0  0  0  0  0
    1.8273    3.1883   -4.3889 N   0  0  0  0  0  0  0  0  0  0  0  0
    6.3255    1.3718   -5.4066 C   0  0  0  0  0  0  0  0  0  0  0  0
    7.7188    1.3176   -5.3640 C   0  0  0  0  0  0  0  0  0  0  0  0
    8.3895    0.7559   -4.2698 C   0  0  0  0  0  0  0  0  0  0  0  0
    7.6249    0.2439   -3.2102 C   0  0  0  0  0  0  0  0  0  0  0  0
    6.2334    0.2900   -3.2384 C   0  0  0  0  0  0  0  0  0  0  0  0
    5.5895    0.8584   -4.3395 C   0  0  0  0  0  0  0  0  0  0  0  0
    5.8056    1.7929   -6.2602 H   0  0  0  0  0  0  0  0  0  0  0  0
    8.2938    1.7142   -6.1972 H   0  0  0  0  0  0  0  0  0  0  0  0
    8.1276   -0.1989   -2.3535 H   0  0  0  0  0  0  0  0  0  0  0  0
    5.6434   -0.1206   -2.4264 H   0  0  0  0  0  0  0  0  0  0  0  0
    3.7996    0.9605   -4.3742 S   0  0  0  0  0  0  0  0  0  0  0  0
    3.2874   -0.2105   -3.6130 O   0  0  0  0  0  0  0  0  0  0  0  0
    3.3778    1.0653   -5.7833 O   0  0  0  0  0  0  0  0  0  0  0  0
    3.4901    2.2513   -3.5923 O   0  0  0  0  0  0  0  0  0  0  0  0
    9.8974    0.6753   -4.2380 C   0  0  0  0  0  0  0  0  0  0  0  0
   10.2439   -0.3426   -4.4554 H   0  0  0  0  0  0  0  0  0  0  0  0
   10.3507    1.3413   -4.9773 H   0  0  0  0  0  0  0  0  0  0  0  0
   10.2918    0.9449   -3.2526 H   0  0  0  0  0  0  0  0  0  0  0  0
   -1.7561    0.1685   -0.1983 H   0  0  0  0  0  0  0  0  0  0  0  0
  1  7  1  0  0  0  0
  1  6  2  0  0  0  0
  2  1  1  0  0  0  0
  3  2  2  0  0  0  0
  3  4  1  0  0  0  0
  4  5  2  0  0  0  0
  5 10  1  0  0  0  0
  5  6  1  0  0  0  0
  6 31  1  0  0  0  0
  8  2  1  0  0  0  0
  9  4  1  0  0  0  0
 11  3  1  0  0  0  0
 12 11  2  0  0  0  0
 13 14  2  0  0  0  0
 13 18  1  0  0  0  0
 14 15  1  0  0  0  0
 15 27  1  0  0  0  0
 15 16  2  0  0  0  0
 16 21  1  0  0  0  0
 17 16  1  0  0  0  0
 17 22  1  0  0  0  0
 18 17  2  0  0  0  0
 19 13  1  0  0  0  0
 20 14  1  0  0  0  0
 23 18  1  0  0  0  0
 23 24  2  0  0  0  0
 23 26  1  0  0  0  0
 25 23  2  0  0  0  0
 27 30  1  0  0  0  0
 28 27  1  0  0  0  0
 29 27  1  0  0  0  0
M  RAD  2  12   2  26   2
M  END
