Coordinates from ORCA-job Ph-N2-X-OTs-B3LYPG-6-31G_dp-scan-d09-49-n400
 OpenBabel08281821093D

 31 31  0  0  0  0  0  0  0  0999 V2000
   -0.0239    0.2551   -1.3921 C   0  0  0  0  0  0  0  0  0  0  0  0
    0.7516    0.9392   -2.3263 C   0  0  0  0  0  0  0  0  0  0  0  0
    0.2295    2.1456   -2.8186 C   0  0  0  0  0  0  0  0  0  0  0  0
   -1.0129    2.6667   -2.4284 C   0  0  0  0  0  0  0  0  0  0  0  0
   -1.7521    1.9650   -1.4848 C   0  0  0  0  0  0  0  0  0  0  0  0
   -1.2568    0.7609   -0.9703 C   0  0  0  0  0  0  0  0  0  0  0  0
    0.3447   -0.6850   -0.9961 H   0  0  0  0  0  0  0  0  0  0  0  0
    1.7066    0.5424   -2.6757 H   0  0  0  0  0  0  0  0  0  0  0  0
   -1.3677    3.5985   -2.8539 H   0  0  0  0  0  0  0  0  0  0  0  0
   -2.7119    2.3484   -1.1568 H   0  0  0  0  0  0  0  0  0  0  0  0
    0.9478    2.8780   -3.7722 N   0  0  0  0  0  0  0  0  0  0  0  0
    1.8887    3.1625   -4.3480 N   0  0  0  0  0  0  0  0  0  0  0  0
    6.3093    1.3756   -5.3738 C   0  0  0  0  0  0  0  0  0  0  0  0
    7.7029    1.3418   -5.3606 C   0  0  0  0  0  0  0  0  0  0  0  0
    8.4044    0.7656   -4.2922 C   0  0  0  0  0  0  0  0  0  0  0  0
    7.6697    0.2199   -3.2296 C   0  0  0  0  0  0  0  0  0  0  0  0
    6.2764    0.2454   -3.2287 C   0  0  0  0  0  0  0  0  0  0  0  0
    5.6025    0.8275   -4.3031 C   0  0  0  0  0  0  0  0  0  0  0  0
    5.7660    1.8076   -6.2071 H   0  0  0  0  0  0  0  0  0  0  0  0
    8.2550    1.7660   -6.1958 H   0  0  0  0  0  0  0  0  0  0  0  0
    8.1964   -0.2330   -2.3930 H   0  0  0  0  0  0  0  0  0  0  0  0
    5.7090   -0.1903   -2.4136 H   0  0  0  0  0  0  0  0  0  0  0  0
    3.8109    0.9043   -4.2981 S   0  0  0  0  0  0  0  0  0  0  0  0
    3.3298   -0.2687   -3.5231 O   0  0  0  0  0  0  0  0  0  0  0  0
    3.3570    1.0047   -5.6980 O   0  0  0  0  0  0  0  0  0  0  0  0
    3.4990    2.1944   -3.5125 O   0  0  0  0  0  0  0  0  0  0  0  0
    9.9134    0.7028   -4.3010 C   0  0  0  0  0  0  0  0  0  0  0  0
   10.2673   -0.2313   -4.7560 H   0  0  0  0  0  0  0  0  0  0  0  0
   10.3460    1.5273   -4.8755 H   0  0  0  0  0  0  0  0  0  0  0  0
   10.3228    0.7436   -3.2872 H   0  0  0  0  0  0  0  0  0  0  0  0
   -1.8420    0.2101   -0.2399 H   0  0  0  0  0  0  0  0  0  0  0  0
  1  7  1  0  0  0  0
  1  6  1  0  0  0  0
  2  1  2  0  0  0  0
  3  4  2  0  0  0  0
  3  2  1  0  0  0  0
  4  5  1  0  0  0  0
  5 10  1  0  0  0  0
  5  6  2  0  0  0  0
  6 31  1  0  0  0  0
  8  2  1  0  0  0  0
  9  4  1  0  0  0  0
 11  3  1  0  0  0  0
 12 11  2  0  0  0  0
 13 14  2  0  0  0  0
 13 18  1  0  0  0  0
 14 15  1  0  0  0  0
 15 16  2  0  0  0  0
 16 17  1  0  0  0  0
 16 21  1  0  0  0  0
 17 22  1  0  0  0  0
 18 23  1  0  0  0  0
 18 17  2  0  0  0  0
 19 13  1  0  0  0  0
 20 14  1  0  0  0  0
 23 24  2  0  0  0  0
 23 26  1  0  0  0  0
 25 23  2  0  0  0  0
 27 15  1  0  0  0  0
 27 30  1  0  0  0  0
 28 27  1  0  0  0  0
 29 27  1  0  0  0  0
M  RAD  2  12   2  26   2
M  END
