Coordinates from ORCA-job Ph-N2-X-OTs-B3LYPG-6-31G_dp-scan-d09-49-n400
 OpenBabel08281821093D

 31 31  0  0  0  0  0  0  0  0999 V2000
   -0.4900    0.4387   -1.3896 C   0  0  0  0  0  0  0  0  0  0  0  0
    0.6787    1.0482   -1.8350 C   0  0  0  0  0  0  0  0  0  0  0  0
    0.5485    2.2314   -2.5806 C   0  0  0  0  0  0  0  0  0  0  0  0
   -0.6931    2.8089   -2.8780 C   0  0  0  0  0  0  0  0  0  0  0  0
   -1.8437    2.1766   -2.4217 C   0  0  0  0  0  0  0  0  0  0  0  0
   -1.7401    0.9948   -1.6806 C   0  0  0  0  0  0  0  0  0  0  0  0
   -0.4213   -0.4806   -0.8178 H   0  0  0  0  0  0  0  0  0  0  0  0
    1.6650    0.6483   -1.6339 H   0  0  0  0  0  0  0  0  0  0  0  0
   -0.7362    3.7252   -3.4558 H   0  0  0  0  0  0  0  0  0  0  0  0
   -2.8170    2.6007   -2.6436 H   0  0  0  0  0  0  0  0  0  0  0  0
    1.6832    2.8940   -3.0663 N   0  0  0  0  0  0  0  0  0  0  0  0
    2.8201    2.9190   -3.2137 N   0  0  0  0  0  0  0  0  0  0  0  0
    5.9663    1.2538   -5.0282 C   0  0  0  0  0  0  0  0  0  0  0  0
    7.3043    1.4675   -5.3565 C   0  0  0  0  0  0  0  0  0  0  0  0
    8.3371    0.9327   -4.5739 C   0  0  0  0  0  0  0  0  0  0  0  0
    7.9935    0.1733   -3.4462 C   0  0  0  0  0  0  0  0  0  0  0  0
    6.6608   -0.0504   -3.1061 C   0  0  0  0  0  0  0  0  0  0  0  0
    5.6513    0.4969   -3.8994 C   0  0  0  0  0  0  0  0  0  0  0  0
    5.1671    1.6536   -5.6421 H   0  0  0  0  0  0  0  0  0  0  0  0
    7.5510    2.0540   -6.2384 H   0  0  0  0  0  0  0  0  0  0  0  0
    8.7807   -0.2522   -2.8292 H   0  0  0  0  0  0  0  0  0  0  0  0
    6.3980   -0.6518   -2.2423 H   0  0  0  0  0  0  0  0  0  0  0  0
    3.9346    0.2402   -3.4463 S   0  0  0  0  0  0  0  0  0  0  0  0
    3.8405   -1.0877   -2.8197 O   0  0  0  0  0  0  0  0  0  0  0  0
    3.1152    0.5145   -4.6434 O   0  0  0  0  0  0  0  0  0  0  0  0
    3.6488    1.3209   -2.3573 O   0  0  0  0  0  0  0  0  0  0  0  0
    9.7835    1.1413   -4.9557 C   0  0  0  0  0  0  0  0  0  0  0  0
   10.1086    0.3963   -5.6929 H   0  0  0  0  0  0  0  0  0  0  0  0
    9.9417    2.1280   -5.4022 H   0  0  0  0  0  0  0  0  0  0  0  0
   10.4436    1.0516   -4.0880 H   0  0  0  0  0  0  0  0  0  0  0  0
   -2.6412    0.5030   -1.3276 H   0  0  0  0  0  0  0  0  0  0  0  0
  1  7  1  0  0  0  0
  2  8  1  0  0  0  0
  2  1  2  0  0  0  0
  3  2  1  0  0  0  0
  4  3  2  0  0  0  0
  4  5  1  0  0  0  0
  5  6  2  0  0  0  0
  6  1  1  0  0  0  0
  6 31  1  0  0  0  0
  9  4  1  0  0  0  0
 10  5  1  0  0  0  0
 11  3  1  0  0  0  0
 12 11  2  0  0  0  0
 13 18  1  0  0  0  0
 14 13  2  0  0  0  0
 14 15  1  0  0  0  0
 15 16  2  0  0  0  0
 16 17  1  0  0  0  0
 16 21  1  0  0  0  0
 17 22  1  0  0  0  0
 18 23  1  0  0  0  0
 18 17  2  0  0  0  0
 19 13  1  0  0  0  0
 20 14  1  0  0  0  0
 23 24  2  0  0  0  0
 23 26  1  0  0  0  0
 25 23  2  0  0  0  0
 27 15  1  0  0  0  0
 27 30  1  0  0  0  0
 28 27  1  0  0  0  0
 29 27  1  0  0  0  0
M  RAD  2  12   2  26   2
M  END
