Coordinates from ORCA-job Ph-N2-X-OTs-B3LYPG-6-31G_dp-scan-d09-49-n400
 OpenBabel08281821093D

 31 31  0  0  0  0  0  0  0  0999 V2000
   -0.3900    0.3767   -1.4072 C   0  0  0  0  0  0  0  0  0  0  0  0
    0.7183    1.0692   -1.8852 C   0  0  0  0  0  0  0  0  0  0  0  0
    0.4804    2.2567   -2.5964 C   0  0  0  0  0  0  0  0  0  0  0  0
   -0.8070    2.7585   -2.8305 C   0  0  0  0  0  0  0  0  0  0  0  0
   -1.8945    2.0453   -2.3405 C   0  0  0  0  0  0  0  0  0  0  0  0
   -1.6840    0.8574   -1.6320 C   0  0  0  0  0  0  0  0  0  0  0  0
   -0.2378   -0.5487   -0.8623 H   0  0  0  0  0  0  0  0  0  0  0  0
    1.7331    0.7222   -1.7322 H   0  0  0  0  0  0  0  0  0  0  0  0
   -0.9328    3.6809   -3.3861 H   0  0  0  0  0  0  0  0  0  0  0  0
   -2.9013    2.4107   -2.5118 H   0  0  0  0  0  0  0  0  0  0  0  0
    1.5487    2.9995   -3.1146 N   0  0  0  0  0  0  0  0  0  0  0  0
    2.6705    3.1274   -3.3026 N   0  0  0  0  0  0  0  0  0  0  0  0
    6.0307    1.3303   -5.0537 C   0  0  0  0  0  0  0  0  0  0  0  0
    7.3844    1.4500   -5.3639 C   0  0  0  0  0  0  0  0  0  0  0  0
    8.3678    0.8577   -4.5590 C   0  0  0  0  0  0  0  0  0  0  0  0
    7.9581    0.1372   -3.4282 C   0  0  0  0  0  0  0  0  0  0  0  0
    6.6084    0.0074   -3.1057 C   0  0  0  0  0  0  0  0  0  0  0  0
    5.6498    0.6103   -3.9210 C   0  0  0  0  0  0  0  0  0  0  0  0
    5.2690    1.7745   -5.6847 H   0  0  0  0  0  0  0  0  0  0  0  0
    7.6827    2.0078   -6.2485 H   0  0  0  0  0  0  0  0  0  0  0  0
    8.7063   -0.3315   -2.7941 H   0  0  0  0  0  0  0  0  0  0  0  0
    6.2928   -0.5637   -2.2391 H   0  0  0  0  0  0  0  0  0  0  0  0
    3.9133    0.4782   -3.4908 S   0  0  0  0  0  0  0  0  0  0  0  0
    3.7256   -0.8202   -2.8201 O   0  0  0  0  0  0  0  0  0  0  0  0
    3.1300    0.7490   -4.7138 O   0  0  0  0  0  0  0  0  0  0  0  0
    3.6757    1.6117   -2.4512 O   0  0  0  0  0  0  0  0  0  0  0  0
    9.8303    0.9656   -4.9208 C   0  0  0  0  0  0  0  0  0  0  0  0
   10.1146    0.1968   -5.6505 H   0  0  0  0  0  0  0  0  0  0  0  0
   10.0619    1.9372   -5.3685 H   0  0  0  0  0  0  0  0  0  0  0  0
   10.4705    0.8357   -4.0434 H   0  0  0  0  0  0  0  0  0  0  0  0
   -2.5361    0.3011   -1.2538 H   0  0  0  0  0  0  0  0  0  0  0  0
  1  7  1  0  0  0  0
  2  8  1  0  0  0  0
  2  1  2  0  0  0  0
  3  2  1  0  0  0  0
  4  3  2  0  0  0  0
  4  5  1  0  0  0  0
  5  6  2  0  0  0  0
  6  1  1  0  0  0  0
  6 31  1  0  0  0  0
  9  4  1  0  0  0  0
 10  5  1  0  0  0  0
 11  3  1  0  0  0  0
 12 11  2  0  0  0  0
 13 18  1  0  0  0  0
 14 13  2  0  0  0  0
 14 15  1  0  0  0  0
 15 16  2  0  0  0  0
 16 17  1  0  0  0  0
 16 21  1  0  0  0  0
 17 22  1  0  0  0  0
 18 23  1  0  0  0  0
 18 17  2  0  0  0  0
 19 13  1  0  0  0  0
 20 14  1  0  0  0  0
 23 24  2  0  0  0  0
 23 26  1  0  0  0  0
 25 23  2  0  0  0  0
 27 15  1  0  0  0  0
 27 30  1  0  0  0  0
 28 27  1  0  0  0  0
 29 27  1  0  0  0  0
M  RAD  2  12   2  26   2
M  END
