Coordinates from ORCA-job Ph-N2-X-OTs-B3LYPG-6-31G_dp-scan-d09-49-n400
 OpenBabel08281821093D

 31 31  0  0  0  0  0  0  0  0999 V2000
   -0.5628    0.7083   -1.1391 C   0  0  0  0  0  0  0  0  0  0  0  0
    0.6049    0.9696   -1.8504 C   0  0  0  0  0  0  0  0  0  0  0  0
    0.6077    2.0742   -2.7186 C   0  0  0  0  0  0  0  0  0  0  0  0
   -0.5096    2.9061   -2.8763 C   0  0  0  0  0  0  0  0  0  0  0  0
   -1.6637    2.6224   -2.1549 C   0  0  0  0  0  0  0  0  0  0  0  0
   -1.6885    1.5249   -1.2888 C   0  0  0  0  0  0  0  0  0  0  0  0
   -0.5929   -0.1419   -0.4653 H   0  0  0  0  0  0  0  0  0  0  0  0
    1.4933    0.3574   -1.7637 H   0  0  0  0  0  0  0  0  0  0  0  0
   -0.4565    3.7478   -3.5582 H   0  0  0  0  0  0  0  0  0  0  0  0
   -2.5404    3.2518   -2.2677 H   0  0  0  0  0  0  0  0  0  0  0  0
    1.7352    2.4089   -3.4854 N   0  0  0  0  0  0  0  0  0  0  0  0
    2.8069    2.0960   -3.7907 N   0  0  0  0  0  0  0  0  0  0  0  0
    5.9502    1.0032   -5.1916 C   0  0  0  0  0  0  0  0  0  0  0  0
    7.2449    1.5015   -5.3351 C   0  0  0  0  0  0  0  0  0  0  0  0
    8.2578    1.1602   -4.4291 C   0  0  0  0  0  0  0  0  0  0  0  0
    7.9400    0.3008   -3.3663 C   0  0  0  0  0  0  0  0  0  0  0  0
    6.6520   -0.2051   -3.2092 C   0  0  0  0  0  0  0  0  0  0  0  0
    5.6597    0.1545   -4.1236 C   0  0  0  0  0  0  0  0  0  0  0  0
    5.1707    1.2542   -5.9024 H   0  0  0  0  0  0  0  0  0  0  0  0
    7.4742    2.1613   -6.1684 H   0  0  0  0  0  0  0  0  0  0  0  0
    8.7141    0.0204   -2.6561 H   0  0  0  0  0  0  0  0  0  0  0  0
    6.4125   -0.8831   -2.3971 H   0  0  0  0  0  0  0  0  0  0  0  0
    3.9936   -0.4745   -3.9136 S   0  0  0  0  0  0  0  0  0  0  0  0
    4.0944   -1.7848   -3.2601 O   0  0  0  0  0  0  0  0  0  0  0  0
    3.3116   -0.3578   -5.2105 O   0  0  0  0  0  0  0  0  0  0  0  0
    3.3366    0.5192   -2.8762 O   0  0  0  0  0  0  0  0  0  0  0  0
    9.6662    1.6754   -4.6092 C   0  0  0  0  0  0  0  0  0  0  0  0
   10.2891    0.9433   -5.1386 H   0  0  0  0  0  0  0  0  0  0  0  0
    9.6824    2.6005   -5.1927 H   0  0  0  0  0  0  0  0  0  0  0  0
   10.1467    1.8720   -3.6460 H   0  0  0  0  0  0  0  0  0  0  0  0
   -2.5911    1.3043   -0.7269 H   0  0  0  0  0  0  0  0  0  0  0  0
  1  7  1  0  0  0  0
  2  8  1  0  0  0  0
  2  1  2  0  0  0  0
  3  2  1  0  0  0  0
  4  3  2  0  0  0  0
  4  5  1  0  0  0  0
  5  6  2  0  0  0  0
  6  1  1  0  0  0  0
  6 31  1  0  0  0  0
  9  4  1  0  0  0  0
 10  5  1  0  0  0  0
 11  3  1  0  0  0  0
 12 11  2  0  0  0  0
 13 18  1  0  0  0  0
 14 13  2  0  0  0  0
 14 15  1  0  0  0  0
 15 16  2  0  0  0  0
 16 17  1  0  0  0  0
 16 21  1  0  0  0  0
 17 22  1  0  0  0  0
 18 23  1  0  0  0  0
 18 17  2  0  0  0  0
 19 13  1  0  0  0  0
 20 14  1  0  0  0  0
 23 24  2  0  0  0  0
 23 26  1  0  0  0  0
 25 23  2  0  0  0  0
 27 15  1  0  0  0  0
 27 30  1  0  0  0  0
 28 27  1  0  0  0  0
 29 27  1  0  0  0  0
M  RAD  2  12   2  26   2
M  END
