Coordinates from ORCA-job Ph-N2-X-OTs-B3LYPG-6-31G_dp-scan-d09-49-n400
 OpenBabel08281821093D

 31 31  0  0  0  0  0  0  0  0999 V2000
   -0.1737    0.3035   -1.3634 C   0  0  0  0  0  0  0  0  0  0  0  0
    0.7073    0.9623   -2.2174 C   0  0  0  0  0  0  0  0  0  0  0  0
    0.2701    2.1729   -2.7775 C   0  0  0  0  0  0  0  0  0  0  0  0
   -0.9938    2.7222   -2.5207 C   0  0  0  0  0  0  0  0  0  0  0  0
   -1.8438    2.0474   -1.6529 C   0  0  0  0  0  0  0  0  0  0  0  0
   -1.4327    0.8400   -1.0778 C   0  0  0  0  0  0  0  0  0  0  0  0
    0.1317   -0.6391   -0.9220 H   0  0  0  0  0  0  0  0  0  0  0  0
    1.6832    0.5526   -2.4563 H   0  0  0  0  0  0  0  0  0  0  0  0
   -1.2820    3.6558   -2.9905 H   0  0  0  0  0  0  0  0  0  0  0  0
   -2.8237    2.4555   -1.4303 H   0  0  0  0  0  0  0  0  0  0  0  0
    1.0946    2.8851   -3.6603 N   0  0  0  0  0  0  0  0  0  0  0  0
    2.1118    3.0844   -4.1430 N   0  0  0  0  0  0  0  0  0  0  0  0
    6.2579    1.3742   -5.2970 C   0  0  0  0  0  0  0  0  0  0  0  0
    7.6503    1.4118   -5.3543 C   0  0  0  0  0  0  0  0  0  0  0  0
    8.4337    0.8099   -4.3597 C   0  0  0  0  0  0  0  0  0  0  0  0
    7.7828    0.1639   -3.2988 C   0  0  0  0  0  0  0  0  0  0  0  0
    6.3919    0.1168   -3.2280 C   0  0  0  0  0  0  0  0  0  0  0  0
    5.6354    0.7271   -4.2293 C   0  0  0  0  0  0  0  0  0  0  0  0
    5.6519    1.8268   -6.0742 H   0  0  0  0  0  0  0  0  0  0  0  0
    8.1370    1.9125   -6.1879 H   0  0  0  0  0  0  0  0  0  0  0  0
    8.3735   -0.3111   -2.5193 H   0  0  0  0  0  0  0  0  0  0  0  0
    5.8895   -0.3957   -2.4148 H   0  0  0  0  0  0  0  0  0  0  0  0
    3.8451    0.7071   -4.1280 S   0  0  0  0  0  0  0  0  0  0  0  0
    3.4651   -0.5221   -3.3966 O   0  0  0  0  0  0  0  0  0  0  0  0
    3.3115    0.8775   -5.4931 O   0  0  0  0  0  0  0  0  0  0  0  0
    3.5056    1.9401   -3.2498 O   0  0  0  0  0  0  0  0  0  0  0  0
    9.9416    0.8261   -4.4460 C   0  0  0  0  0  0  0  0  0  0  0  0
   10.3170   -0.0629   -4.9691 H   0  0  0  0  0  0  0  0  0  0  0  0
   10.3026    1.7014   -4.9943 H   0  0  0  0  0  0  0  0  0  0  0  0
   10.4007    0.8343   -3.4530 H   0  0  0  0  0  0  0  0  0  0  0  0
   -2.1026    0.3106   -0.4068 H   0  0  0  0  0  0  0  0  0  0  0  0
  1  6  1  0  0  0  0
  1  7  1  0  0  0  0
  2  1  2  0  0  0  0
  3  4  2  0  0  0  0
  3  2  1  0  0  0  0
  4  5  1  0  0  0  0
  5 10  1  0  0  0  0
  5  6  2  0  0  0  0
  6 31  1  0  0  0  0
  8  2  1  0  0  0  0
  9  4  1  0  0  0  0
 11  3  1  0  0  0  0
 12 11  2  0  0  0  0
 13 18  1  0  0  0  0
 14 13  2  0  0  0  0
 14 15  1  0  0  0  0
 15 16  2  0  0  0  0
 16 17  1  0  0  0  0
 16 21  1  0  0  0  0
 17 22  1  0  0  0  0
 18 23  1  0  0  0  0
 18 17  2  0  0  0  0
 19 13  1  0  0  0  0
 20 14  1  0  0  0  0
 23 24  2  0  0  0  0
 23 26  1  0  0  0  0
 25 23  2  0  0  0  0
 27 15  1  0  0  0  0
 27 30  1  0  0  0  0
 28 27  1  0  0  0  0
 29 27  1  0  0  0  0
M  RAD  2  12   2  26   2
M  END
