Coordinates from ORCA-job Ph-N2+-B3LYPG-aug-cc-pVDZ-scan-d09-49-n400
 OpenBabel09291715233D

 13 12  0  0  0  0  0  0  0  0999 V2000
   -2.3879    0.1159   -1.1217 C   0  0  0  0  0  0  0  0  0  0  0  0
   -0.9562    0.0138   -1.0318 C   0  0  0  0  0  0  0  0  0  0  0  0
   -0.6371    0.8592   -0.0572 C   0  0  0  0  0  0  0  0  0  0  0  0
   -1.0570    1.7367    0.8482 C   0  0  0  0  0  0  0  0  0  0  0  0
   -2.4840    1.7589    0.6710 C   0  0  0  0  0  0  0  0  0  0  0  0
   -3.1171    0.9670   -0.2890 C   0  0  0  0  0  0  0  0  0  0  0  0
   -2.8595   -0.5134   -1.8801 H   0  0  0  0  0  0  0  0  0  0  0  0
   -0.3417   -0.6321   -1.6550 H   0  0  0  0  0  0  0  0  0  0  0  0
    3.9280    0.6603    0.3685 N   0  0  0  0  0  0  0  0  0  0  0  0
    5.0264    0.6124    0.4706 N   0  0  0  0  0  0  0  0  0  0  0  0
   -4.2008    1.0141   -0.3903 H   0  0  0  0  0  0  0  0  0  0  0  0
   -3.0318    2.4325    1.3342 H   0  0  0  0  0  0  0  0  0  0  0  0
   -0.5151    2.3323    1.5795 H   0  0  0  0  0  0  0  0  0  0  0  0
  1  2  2  0  0  0  0
  1  6  1  0  0  0  0
  2  3  1  0  0  0  0
  3  4  2  0  0  0  0
  4 13  1  0  0  0  0
  5  4  1  0  0  0  0
  5 12  1  0  0  0  0
  6  5  2  0  0  0  0
  7  1  1  0  0  0  0
  8  2  1  0  0  0  0
  9 10  3  0  0  0  0
 11  6  1  0  0  0  0
M  RAD  1   3   2
M  END
