Coordinates from ORCA-job Ph-N2+-B3LYPG-aug-cc-pVDZ-scan-d09-49-n400
 OpenBabel09291715233D

 13 13  0  0  0  0  0  0  0  0999 V2000
   -1.9054    0.0894   -1.0827 C   0  0  0  0  0  0  0  0  0  0  0  0
   -0.5311    0.0157   -0.9697 C   0  0  0  0  0  0  0  0  0  0  0  0
    0.1361    0.8252    0.0150 C   0  0  0  0  0  0  0  0  0  0  0  0
   -0.6292    1.6975    0.8654 C   0  0  0  0  0  0  0  0  0  0  0  0
   -2.0020    1.7434    0.7220 C   0  0  0  0  0  0  0  0  0  0  0  0
   -2.6398    0.9462   -0.2444 C   0  0  0  0  0  0  0  0  0  0  0  0
   -2.4158   -0.5214   -1.8264 H   0  0  0  0  0  0  0  0  0  0  0  0
    0.0664   -0.6384   -1.6045 H   0  0  0  0  0  0  0  0  0  0  0  0
    1.2907    0.7752    0.1225 N   0  0  0  0  0  0  0  0  0  0  0  0
    2.4126    0.7266    0.2270 N   0  0  0  0  0  0  0  0  0  0  0  0
   -3.7245    0.9935   -0.3457 H   0  0  0  0  0  0  0  0  0  0  0  0
   -2.5863    2.4020    1.3634 H   0  0  0  0  0  0  0  0  0  0  0  0
   -0.1052    2.3029    1.6049 H   0  0  0  0  0  0  0  0  0  0  0  0
  1  2  2  0  0  0  0
  1  6  1  0  0  0  0
  2  3  1  0  0  0  0
  3  9  1  0  0  0  0
  3  4  2  0  0  0  0
  4 13  1  0  0  0  0
  5  4  1  0  0  0  0
  5 12  1  0  0  0  0
  6  5  2  0  0  0  0
  7  1  1  0  0  0  0
  8  2  1  0  0  0  0
  9 10  1  0  0  0  0
 11  6  1  0  0  0  0
M  RAD  2   9   2  10   3
M  END
