Coordinates from ORCA-job Ph-N2+-B3LYPG-aug-cc-pVDZ-scan-d09-49-n400
 OpenBabel09291715233D

 13 12  0  0  0  0  0  0  0  0999 V2000
   -2.1385    0.1047   -1.0988 C   0  0  0  0  0  0  0  0  0  0  0  0
   -0.7091    0.0041   -1.0076 C   0  0  0  0  0  0  0  0  0  0  0  0
   -0.3812    0.8480   -0.0335 C   0  0  0  0  0  0  0  0  0  0  0  0
   -0.8096    1.7248    0.8699 C   0  0  0  0  0  0  0  0  0  0  0  0
   -2.2344    1.7483    0.6946 C   0  0  0  0  0  0  0  0  0  0  0  0
   -2.8678    0.9562   -0.2657 C   0  0  0  0  0  0  0  0  0  0  0  0
   -2.6125   -0.5233   -1.8562 H   0  0  0  0  0  0  0  0  0  0  0  0
   -0.0934   -0.6407   -1.6296 H   0  0  0  0  0  0  0  0  0  0  0  0
    2.5584    0.7201    0.2408 N   0  0  0  0  0  0  0  0  0  0  0  0
    3.6562    0.6723    0.3431 N   0  0  0  0  0  0  0  0  0  0  0  0
   -3.9514    1.0033   -0.3669 H   0  0  0  0  0  0  0  0  0  0  0  0
   -2.7844    2.4209    1.3564 H   0  0  0  0  0  0  0  0  0  0  0  0
   -0.2661    2.3191    1.6001 H   0  0  0  0  0  0  0  0  0  0  0  0
  1  2  2  0  0  0  0
  1  6  1  0  0  0  0
  2  3  1  0  0  0  0
  3  4  2  0  0  0  0
  4 13  1  0  0  0  0
  5  4  1  0  0  0  0
  5 12  1  0  0  0  0
  6  5  2  0  0  0  0
  7  1  1  0  0  0  0
  8  2  1  0  0  0  0
  9 10  3  0  0  0  0
 11  6  1  0  0  0  0
M  RAD  1   3   2
M  END
