Coordinates from ORCA-job Ph-N2+-B3LYPG-aug-cc-pVDZ-scan-d09-49-n400
 OpenBabel09291715233D

 13 12  0  0  0  0  0  0  0  0999 V2000
   -2.1874    0.1071   -1.1031 C   0  0  0  0  0  0  0  0  0  0  0  0
   -0.7568    0.0053   -1.0129 C   0  0  0  0  0  0  0  0  0  0  0  0
   -0.4330    0.8502   -0.0383 C   0  0  0  0  0  0  0  0  0  0  0  0
   -0.8573    1.7277    0.8664 C   0  0  0  0  0  0  0  0  0  0  0  0
   -2.2833    1.7502    0.6898 C   0  0  0  0  0  0  0  0  0  0  0  0
   -2.9165    0.9583   -0.2702 C   0  0  0  0  0  0  0  0  0  0  0  0
   -2.6604   -0.5215   -1.8609 H   0  0  0  0  0  0  0  0  0  0  0  0
   -0.1415   -0.6399   -1.6354 H   0  0  0  0  0  0  0  0  0  0  0  0
    2.8257    0.7084    0.2657 N   0  0  0  0  0  0  0  0  0  0  0  0
    3.9236    0.6606    0.3680 N   0  0  0  0  0  0  0  0  0  0  0  0
   -4.0002    1.0054   -0.3714 H   0  0  0  0  0  0  0  0  0  0  0  0
   -2.8323    2.4233    1.3522 H   0  0  0  0  0  0  0  0  0  0  0  0
   -0.3144    2.3225    1.5970 H   0  0  0  0  0  0  0  0  0  0  0  0
  1  2  2  0  0  0  0
  1  6  1  0  0  0  0
  2  3  1  0  0  0  0
  3  4  2  0  0  0  0
  4 13  1  0  0  0  0
  5  4  1  0  0  0  0
  5 12  1  0  0  0  0
  6  5  2  0  0  0  0
  7  1  1  0  0  0  0
  8  2  1  0  0  0  0
  9 10  3  0  0  0  0
 11  6  1  0  0  0  0
M  RAD  1   3   2
M  END
