Coordinates from ORCA-job Ph-N2+-B3LYPG-aug-cc-pVDZ-scan-d09-49-n400
 OpenBabel09291715233D

 13 12  0  0  0  0  0  0  0  0999 V2000
   -2.1159    0.1037   -1.0967 C   0  0  0  0  0  0  0  0  0  0  0  0
   -0.6877    0.0035   -1.0052 C   0  0  0  0  0  0  0  0  0  0  0  0
   -0.3539    0.8468   -0.0310 C   0  0  0  0  0  0  0  0  0  0  0  0
   -0.7881    1.7234    0.8715 C   0  0  0  0  0  0  0  0  0  0  0  0
   -2.2118    1.7474    0.6968 C   0  0  0  0  0  0  0  0  0  0  0  0
   -2.8453    0.9552   -0.2636 C   0  0  0  0  0  0  0  0  0  0  0  0
   -2.5910   -0.5238   -1.8537 H   0  0  0  0  0  0  0  0  0  0  0  0
   -0.0727   -0.6414   -1.6274 H   0  0  0  0  0  0  0  0  0  0  0  0
    2.4361    0.7254    0.2294 N   0  0  0  0  0  0  0  0  0  0  0  0
    3.5338    0.6776    0.3317 N   0  0  0  0  0  0  0  0  0  0  0  0
   -3.9289    1.0023   -0.3648 H   0  0  0  0  0  0  0  0  0  0  0  0
   -2.7628    2.4196    1.3580 H   0  0  0  0  0  0  0  0  0  0  0  0
   -0.2454    2.3180    1.6018 H   0  0  0  0  0  0  0  0  0  0  0  0
  1  2  2  0  0  0  0
  1  6  1  0  0  0  0
  2  3  1  0  0  0  0
  3  4  2  0  0  0  0
  4 13  1  0  0  0  0
  5  4  1  0  0  0  0
  5 12  1  0  0  0  0
  6  5  2  0  0  0  0
  7  1  1  0  0  0  0
  8  2  1  0  0  0  0
  9 10  3  0  0  0  0
 11  6  1  0  0  0  0
M  RAD  1   3   2
M  END
