Coordinates from ORCA-job Ph-N2+-B3LYPG-aug-cc-pVDZ-scan-d09-49-n400
 OpenBabel09291715233D

 13 12  0  0  0  0  0  0  0  0999 V2000
   -2.4155    0.1171   -1.1243 C   0  0  0  0  0  0  0  0  0  0  0  0
   -0.9838    0.0150   -1.0343 C   0  0  0  0  0  0  0  0  0  0  0  0
   -0.6647    0.8604   -0.0598 C   0  0  0  0  0  0  0  0  0  0  0  0
   -1.0846    1.7380    0.8457 C   0  0  0  0  0  0  0  0  0  0  0  0
   -2.5117    1.7601    0.6684 C   0  0  0  0  0  0  0  0  0  0  0  0
   -3.1447    0.9682   -0.2916 C   0  0  0  0  0  0  0  0  0  0  0  0
   -2.8870   -0.5122   -1.8827 H   0  0  0  0  0  0  0  0  0  0  0  0
   -0.3694   -0.6309   -1.6577 H   0  0  0  0  0  0  0  0  0  0  0  0
    4.0799    0.6537    0.3827 N   0  0  0  0  0  0  0  0  0  0  0  0
    5.1783    0.6058    0.4847 N   0  0  0  0  0  0  0  0  0  0  0  0
   -4.2284    1.0153   -0.3929 H   0  0  0  0  0  0  0  0  0  0  0  0
   -3.0594    2.4337    1.3316 H   0  0  0  0  0  0  0  0  0  0  0  0
   -0.5429    2.3336    1.5771 H   0  0  0  0  0  0  0  0  0  0  0  0
  1  2  2  0  0  0  0
  1  6  1  0  0  0  0
  2  3  1  0  0  0  0
  3  4  2  0  0  0  0
  4 13  1  0  0  0  0
  5  4  1  0  0  0  0
  5 12  1  0  0  0  0
  6  5  2  0  0  0  0
  7  1  1  0  0  0  0
  8  2  1  0  0  0  0
  9 10  3  0  0  0  0
 11  6  1  0  0  0  0
M  RAD  1   3   2
M  END
