Coordinates from ORCA-job Ph-N2+-B3LYPG-aug-cc-pVDZ-scan-d09-49-n400
 OpenBabel09291715233D

 13 12  0  0  0  0  0  0  0  0999 V2000
   -2.0177    0.0985   -1.0886 C   0  0  0  0  0  0  0  0  0  0  0  0
   -0.6048    0.0053   -0.9916 C   0  0  0  0  0  0  0  0  0  0  0  0
   -0.1883    0.8396   -0.0156 C   0  0  0  0  0  0  0  0  0  0  0  0
   -0.7045    1.7144    0.8734 C   0  0  0  0  0  0  0  0  0  0  0  0
   -2.1137    1.7440    0.7070 C   0  0  0  0  0  0  0  0  0  0  0  0
   -2.7473    0.9509   -0.2544 C   0  0  0  0  0  0  0  0  0  0  0  0
   -2.5070   -0.5224   -1.8403 H   0  0  0  0  0  0  0  0  0  0  0  0
    0.0034   -0.6419   -1.6173 H   0  0  0  0  0  0  0  0  0  0  0  0
    1.9136    0.7481    0.1806 N   0  0  0  0  0  0  0  0  0  0  0  0
    3.0106    0.7004    0.2830 N   0  0  0  0  0  0  0  0  0  0  0  0
   -3.8309    0.9981   -0.3556 H   0  0  0  0  0  0  0  0  0  0  0  0
   -2.6782    2.4108    1.3603 H   0  0  0  0  0  0  0  0  0  0  0  0
   -0.1690    2.3119    1.6058 H   0  0  0  0  0  0  0  0  0  0  0  0
  1  2  2  0  0  0  0
  1  6  1  0  0  0  0
  2  3  1  0  0  0  0
  3  4  2  0  0  0  0
  4 13  1  0  0  0  0
  5  4  1  0  0  0  0
  5 12  1  0  0  0  0
  6  5  2  0  0  0  0
  7  1  1  0  0  0  0
  8  2  1  0  0  0  0
  9 10  3  0  0  0  0
 11  6  1  0  0  0  0
M  RAD  1   3   2
M  END
