Coordinates from ORCA-job Ph-N2+-B3LYPG-aug-cc-pVDZ-scan-d09-49-n400
 OpenBabel09291715233D

 13 12  0  0  0  0  0  0  0  0999 V2000
   -2.4339    0.1179   -1.1260 C   0  0  0  0  0  0  0  0  0  0  0  0
   -1.0022    0.0158   -1.0360 C   0  0  0  0  0  0  0  0  0  0  0  0
   -0.6831    0.8612   -0.0615 C   0  0  0  0  0  0  0  0  0  0  0  0
   -1.1030    1.7388    0.8440 C   0  0  0  0  0  0  0  0  0  0  0  0
   -2.5301    1.7609    0.6667 C   0  0  0  0  0  0  0  0  0  0  0  0
   -3.1631    0.9690   -0.2933 C   0  0  0  0  0  0  0  0  0  0  0  0
   -2.9053   -0.5114   -1.8845 H   0  0  0  0  0  0  0  0  0  0  0  0
   -0.3878   -0.6302   -1.6594 H   0  0  0  0  0  0  0  0  0  0  0  0
    4.1812    0.6493    0.3921 N   0  0  0  0  0  0  0  0  0  0  0  0
    5.2796    0.6013    0.4941 N   0  0  0  0  0  0  0  0  0  0  0  0
   -4.2468    1.0161   -0.3946 H   0  0  0  0  0  0  0  0  0  0  0  0
   -3.0778    2.4345    1.3299 H   0  0  0  0  0  0  0  0  0  0  0  0
   -0.5614    2.3345    1.5754 H   0  0  0  0  0  0  0  0  0  0  0  0
  1  2  2  0  0  0  0
  1  6  1  0  0  0  0
  2  3  1  0  0  0  0
  3  4  2  0  0  0  0
  4 13  1  0  0  0  0
  5  4  1  0  0  0  0
  5 12  1  0  0  0  0
  6  5  2  0  0  0  0
  7  1  1  0  0  0  0
  8  2  1  0  0  0  0
  9 10  3  0  0  0  0
 11  6  1  0  0  0  0
M  RAD  1   3   2
M  END
