Coordinates from ORCA-job Ph-N2+-B3LYPG-aug-cc-pVDZ-scan-d09-49-n400
 OpenBabel09291715233D

 13 13  0  0  0  0  0  0  0  0999 V2000
   -1.9214    0.0901   -1.0843 C   0  0  0  0  0  0  0  0  0  0  0  0
   -0.5423    0.0159   -0.9711 C   0  0  0  0  0  0  0  0  0  0  0  0
    0.0861    0.8276    0.0101 C   0  0  0  0  0  0  0  0  0  0  0  0
   -0.6404    1.6983    0.8647 C   0  0  0  0  0  0  0  0  0  0  0  0
   -2.0179    1.7441    0.7206 C   0  0  0  0  0  0  0  0  0  0  0  0
   -2.6539    0.9469   -0.2457 C   0  0  0  0  0  0  0  0  0  0  0  0
   -2.4326   -0.5203   -1.8274 H   0  0  0  0  0  0  0  0  0  0  0  0
    0.0548   -0.6379   -1.6056 H   0  0  0  0  0  0  0  0  0  0  0  0
    1.3902    0.7709    0.1318 N   0  0  0  0  0  0  0  0  0  0  0  0
    2.5021    0.7225    0.2355 N   0  0  0  0  0  0  0  0  0  0  0  0
   -3.7385    0.9940   -0.3470 H   0  0  0  0  0  0  0  0  0  0  0  0
   -2.6031    2.4021    1.3614 H   0  0  0  0  0  0  0  0  0  0  0  0
   -0.1168    2.3034    1.6038 H   0  0  0  0  0  0  0  0  0  0  0  0
  1  2  2  0  0  0  0
  1  6  1  0  0  0  0
  2  3  1  0  0  0  0
  3  9  1  0  0  0  0
  3  4  2  0  0  0  0
  4 13  1  0  0  0  0
  5  4  1  0  0  0  0
  5 12  1  0  0  0  0
  6  5  2  0  0  0  0
  7  1  1  0  0  0  0
  8  2  1  0  0  0  0
  9 10  1  0  0  0  0
 11  6  1  0  0  0  0
M  RAD  2   9   2  10   3
M  END
