Coordinates from ORCA-job Ph-N2+-B3LYPG-aug-cc-pVDZ-scan-d09-49-n400
 OpenBabel09291715233D

 13 13  0  0  0  0  0  0  0  0999 V2000
   -1.9029    0.0894   -1.0824 C   0  0  0  0  0  0  0  0  0  0  0  0
   -0.5300    0.0156   -0.9695 C   0  0  0  0  0  0  0  0  0  0  0  0
    0.1479    0.8244    0.0163 C   0  0  0  0  0  0  0  0  0  0  0  0
   -0.6281    1.6974    0.8656 C   0  0  0  0  0  0  0  0  0  0  0  0
   -1.9994    1.7432    0.7222 C   0  0  0  0  0  0  0  0  0  0  0  0
   -2.6379    0.9461   -0.2441 C   0  0  0  0  0  0  0  0  0  0  0  0
   -2.4128   -0.5216   -1.8264 H   0  0  0  0  0  0  0  0  0  0  0  0
    0.0685   -0.6381   -1.6041 H   0  0  0  0  0  0  0  0  0  0  0  0
    1.2726    0.7759    0.1209 N   0  0  0  0  0  0  0  0  0  0  0  0
    2.3973    0.7275    0.2254 N   0  0  0  0  0  0  0  0  0  0  0  0
   -3.7226    0.9934   -0.3455 H   0  0  0  0  0  0  0  0  0  0  0  0
   -2.5833    2.4020    1.3637 H   0  0  0  0  0  0  0  0  0  0  0  0
   -0.1030    2.3026    1.6047 H   0  0  0  0  0  0  0  0  0  0  0  0
  1  2  2  0  0  0  0
  1  6  1  0  0  0  0
  2  3  1  0  0  0  0
  3  9  1  0  0  0  0
  3  4  2  0  0  0  0
  4 13  1  0  0  0  0
  5  4  1  0  0  0  0
  5 12  1  0  0  0  0
  6  5  2  0  0  0  0
  7  1  1  0  0  0  0
  8  2  1  0  0  0  0
  9 10  1  0  0  0  0
 11  6  1  0  0  0  0
M  RAD  2   9   2  10   3
M  END
