Coordinates from ORCA-job Ph-N2+-B3LYPG-aug-cc-pVDZ-scan-d09-49-n400
 OpenBabel09291715233D

 13 12  0  0  0  0  0  0  0  0999 V2000
   -2.2256    0.1087   -1.1067 C   0  0  0  0  0  0  0  0  0  0  0  0
   -0.7945    0.0069   -1.0165 C   0  0  0  0  0  0  0  0  0  0  0  0
   -0.4729    0.8520   -0.0421 C   0  0  0  0  0  0  0  0  0  0  0  0
   -0.8951    1.7294    0.8630 C   0  0  0  0  0  0  0  0  0  0  0  0
   -2.3215    1.7519    0.6862 C   0  0  0  0  0  0  0  0  0  0  0  0
   -2.9547    0.9599   -0.2738 C   0  0  0  0  0  0  0  0  0  0  0  0
   -2.6979   -0.5201   -1.8647 H   0  0  0  0  0  0  0  0  0  0  0  0
   -0.1792   -0.6385   -1.6392 H   0  0  0  0  0  0  0  0  0  0  0  0
    3.0351    0.6993    0.2853 N   0  0  0  0  0  0  0  0  0  0  0  0
    4.1331    0.6515    0.3875 N   0  0  0  0  0  0  0  0  0  0  0  0
   -4.0384    1.0071   -0.3750 H   0  0  0  0  0  0  0  0  0  0  0  0
   -2.8699    2.4251    1.3490 H   0  0  0  0  0  0  0  0  0  0  0  0
   -0.3522    2.3244    1.5937 H   0  0  0  0  0  0  0  0  0  0  0  0
  1  2  2  0  0  0  0
  1  6  1  0  0  0  0
  2  3  1  0  0  0  0
  3  4  2  0  0  0  0
  4 13  1  0  0  0  0
  5  4  1  0  0  0  0
  5 12  1  0  0  0  0
  6  5  2  0  0  0  0
  7  1  1  0  0  0  0
  8  2  1  0  0  0  0
  9 10  3  0  0  0  0
 11  6  1  0  0  0  0
M  RAD  1   3   2
M  END
