Coordinates from ORCA-job Ph-N2+-B3LYPG-aug-cc-pVDZ-scan-d09-49-n400
 OpenBabel09291715233D

 13 12  0  0  0  0  0  0  0  0999 V2000
   -2.3236    0.1131   -1.1157 C   0  0  0  0  0  0  0  0  0  0  0  0
   -0.8920    0.0110   -1.0258 C   0  0  0  0  0  0  0  0  0  0  0  0
   -0.5724    0.8563   -0.0513 C   0  0  0  0  0  0  0  0  0  0  0  0
   -0.9927    1.7339    0.8541 C   0  0  0  0  0  0  0  0  0  0  0  0
   -2.4196    1.7561    0.6770 C   0  0  0  0  0  0  0  0  0  0  0  0
   -3.0527    0.9642   -0.2830 C   0  0  0  0  0  0  0  0  0  0  0  0
   -2.7953   -0.5161   -1.8740 H   0  0  0  0  0  0  0  0  0  0  0  0
   -0.2772   -0.6347   -1.6488 H   0  0  0  0  0  0  0  0  0  0  0  0
    3.5738    0.6758    0.3355 N   0  0  0  0  0  0  0  0  0  0  0  0
    4.6721    0.6279    0.4376 N   0  0  0  0  0  0  0  0  0  0  0  0
   -4.1364    1.0113   -0.3842 H   0  0  0  0  0  0  0  0  0  0  0  0
   -2.9675    2.4296    1.3401 H   0  0  0  0  0  0  0  0  0  0  0  0
   -0.4504    2.3293    1.5853 H   0  0  0  0  0  0  0  0  0  0  0  0
  1  2  2  0  0  0  0
  1  6  1  0  0  0  0
  2  3  1  0  0  0  0
  3  4  2  0  0  0  0
  4 13  1  0  0  0  0
  5  4  1  0  0  0  0
  5 12  1  0  0  0  0
  6  5  2  0  0  0  0
  7  1  1  0  0  0  0
  8  2  1  0  0  0  0
  9 10  3  0  0  0  0
 11  6  1  0  0  0  0
M  RAD  1   3   2
M  END
