Coordinates from ORCA-job Ph-N2+-B3LYPG-aug-cc-pVDZ-scan-d09-49-n400
 OpenBabel09291715233D

 13 13  0  0  0  0  0  0  0  0999 V2000
   -1.9574    0.0928   -1.0863 C   0  0  0  0  0  0  0  0  0  0  0  0
   -0.5655    0.0123   -0.9784 C   0  0  0  0  0  0  0  0  0  0  0  0
   -0.0265    0.8326   -0.0005 C   0  0  0  0  0  0  0  0  0  0  0  0
   -0.6642    1.7040    0.8676 C   0  0  0  0  0  0  0  0  0  0  0  0
   -2.0538    1.7445    0.7159 C   0  0  0  0  0  0  0  0  0  0  0  0
   -2.6875    0.9483   -0.2489 C   0  0  0  0  0  0  0  0  0  0  0  0
   -2.4655   -0.5190   -1.8307 H   0  0  0  0  0  0  0  0  0  0  0  0
    0.0365   -0.6384   -1.6087 H   0  0  0  0  0  0  0  0  0  0  0  0
    1.5967    0.7619    0.1510 N   0  0  0  0  0  0  0  0  0  0  0  0
    2.6964    0.7141    0.2537 N   0  0  0  0  0  0  0  0  0  0  0  0
   -3.7715    0.9955   -0.3500 H   0  0  0  0  0  0  0  0  0  0  0  0
   -2.6360    2.4037    1.3585 H   0  0  0  0  0  0  0  0  0  0  0  0
   -0.1353    2.3054    1.6035 H   0  0  0  0  0  0  0  0  0  0  0  0
  1  2  2  0  0  0  0
  1  6  1  0  0  0  0
  2  3  1  0  0  0  0
  3  9  1  0  0  0  0
  3  4  2  0  0  0  0
  4 13  1  0  0  0  0
  5  4  1  0  0  0  0
  5 12  1  0  0  0  0
  6  5  2  0  0  0  0
  7  1  1  0  0  0  0
  8  2  1  0  0  0  0
  9 10  1  0  0  0  0
 11  6  1  0  0  0  0
M  RAD  2   9   2  10   3
M  END
