Coordinates from ORCA-job Ph-N2+-B3LYPG-aug-cc-pVDZ-scan-d09-49-n400
 OpenBabel09291715233D

 13 12  0  0  0  0  0  0  0  0999 V2000
   -1.9979    0.0969   -1.0876 C   0  0  0  0  0  0  0  0  0  0  0  0
   -0.5909    0.0070   -0.9878 C   0  0  0  0  0  0  0  0  0  0  0  0
   -0.1417    0.8376   -0.0112 C   0  0  0  0  0  0  0  0  0  0  0  0
   -0.6904    1.7116    0.8722 C   0  0  0  0  0  0  0  0  0  0  0  0
   -2.0940    1.7439    0.7096 C   0  0  0  0  0  0  0  0  0  0  0  0
   -2.7276    0.9501   -0.2526 C   0  0  0  0  0  0  0  0  0  0  0  0
   -2.4933   -0.5211   -1.8369 H   0  0  0  0  0  0  0  0  0  0  0  0
    0.0158   -0.6409   -1.6144 H   0  0  0  0  0  0  0  0  0  0  0  0
    1.8106    0.7526    0.1710 N   0  0  0  0  0  0  0  0  0  0  0  0
    2.9075    0.7049    0.2734 N   0  0  0  0  0  0  0  0  0  0  0  0
   -3.8112    0.9972   -0.3537 H   0  0  0  0  0  0  0  0  0  0  0  0
   -2.6643    2.4083    1.3595 H   0  0  0  0  0  0  0  0  0  0  0  0
   -0.1564    2.3098    1.6053 H   0  0  0  0  0  0  0  0  0  0  0  0
  1  2  2  0  0  0  0
  1  6  1  0  0  0  0
  2  3  1  0  0  0  0
  3  4  2  0  0  0  0
  4 13  1  0  0  0  0
  5  4  1  0  0  0  0
  5 12  1  0  0  0  0
  6  5  2  0  0  0  0
  7  1  1  0  0  0  0
  8  2  1  0  0  0  0
  9 10  3  0  0  0  0
 11  6  1  0  0  0  0
M  RAD  1   3   2
M  END
