Coordinates from ORCA-job Ph-N2+-B3LYPG-aug-cc-pVDZ-scan-d09-49-n400
 OpenBabel09291715233D

 13 12  0  0  0  0  0  0  0  0999 V2000
   -2.4125    0.1170   -1.1240 C   0  0  0  0  0  0  0  0  0  0  0  0
   -0.9807    0.0148   -1.0341 C   0  0  0  0  0  0  0  0  0  0  0  0
   -0.6616    0.8603   -0.0595 C   0  0  0  0  0  0  0  0  0  0  0  0
   -1.0816    1.7378    0.8460 C   0  0  0  0  0  0  0  0  0  0  0  0
   -2.5086    1.7600    0.6687 C   0  0  0  0  0  0  0  0  0  0  0  0
   -3.1416    0.9681   -0.2913 C   0  0  0  0  0  0  0  0  0  0  0  0
   -2.8839   -0.5123   -1.8824 H   0  0  0  0  0  0  0  0  0  0  0  0
   -0.3663   -0.6311   -1.6574 H   0  0  0  0  0  0  0  0  0  0  0  0
    4.0630    0.6544    0.3811 N   0  0  0  0  0  0  0  0  0  0  0  0
    5.1615    0.6065    0.4831 N   0  0  0  0  0  0  0  0  0  0  0  0
   -4.2253    1.0152   -0.3926 H   0  0  0  0  0  0  0  0  0  0  0  0
   -3.0563    2.4336    1.3319 H   0  0  0  0  0  0  0  0  0  0  0  0
   -0.5398    2.3335    1.5773 H   0  0  0  0  0  0  0  0  0  0  0  0
  1  2  2  0  0  0  0
  1  6  1  0  0  0  0
  2  3  1  0  0  0  0
  3  4  2  0  0  0  0
  4 13  1  0  0  0  0
  5  4  1  0  0  0  0
  5 12  1  0  0  0  0
  6  5  2  0  0  0  0
  7  1  1  0  0  0  0
  8  2  1  0  0  0  0
  9 10  3  0  0  0  0
 11  6  1  0  0  0  0
M  RAD  1   3   2
M  END
