Coordinates from ORCA-job Ph-N2+-B3LYPG-aug-cc-pVDZ-scan-d09-49-n400
 OpenBabel09291715233D

 13 12  0  0  0  0  0  0  0  0999 V2000
   -2.1737    0.1064   -1.1019 C   0  0  0  0  0  0  0  0  0  0  0  0
   -0.7434    0.0049   -1.0116 C   0  0  0  0  0  0  0  0  0  0  0  0
   -0.4182    0.8496   -0.0370 C   0  0  0  0  0  0  0  0  0  0  0  0
   -0.8439    1.7270    0.8675 C   0  0  0  0  0  0  0  0  0  0  0  0
   -2.2696    1.7497    0.6911 C   0  0  0  0  0  0  0  0  0  0  0  0
   -2.9028    0.9577   -0.2690 C   0  0  0  0  0  0  0  0  0  0  0  0
   -2.6470   -0.5220   -1.8596 H   0  0  0  0  0  0  0  0  0  0  0  0
   -0.1281   -0.6403   -1.6340 H   0  0  0  0  0  0  0  0  0  0  0  0
    2.7507    0.7117    0.2588 N   0  0  0  0  0  0  0  0  0  0  0  0
    3.8486    0.6639    0.3610 N   0  0  0  0  0  0  0  0  0  0  0  0
   -3.9865    1.0048   -0.3702 H   0  0  0  0  0  0  0  0  0  0  0  0
   -2.8189    2.4226    1.3534 H   0  0  0  0  0  0  0  0  0  0  0  0
   -0.3010    2.3218    1.5981 H   0  0  0  0  0  0  0  0  0  0  0  0
  1  2  2  0  0  0  0
  1  6  1  0  0  0  0
  2  3  1  0  0  0  0
  3  4  2  0  0  0  0
  4 13  1  0  0  0  0
  5  4  1  0  0  0  0
  5 12  1  0  0  0  0
  6  5  2  0  0  0  0
  7  1  1  0  0  0  0
  8  2  1  0  0  0  0
  9 10  3  0  0  0  0
 11  6  1  0  0  0  0
M  RAD  1   3   2
M  END
