Coordinates from ORCA-job Ph-N2+-B3LYPG-aug-cc-pVDZ-scan-d09-49-n400
 OpenBabel09291715233D

 13 12  0  0  0  0  0  0  0  0999 V2000
   -2.1521    0.1053   -1.1000 C   0  0  0  0  0  0  0  0  0  0  0  0
   -0.7222    0.0045   -1.0090 C   0  0  0  0  0  0  0  0  0  0  0  0
   -0.3968    0.8487   -0.0350 C   0  0  0  0  0  0  0  0  0  0  0  0
   -0.8227    1.7255    0.8689 C   0  0  0  0  0  0  0  0  0  0  0  0
   -2.2480    1.7489    0.6933 C   0  0  0  0  0  0  0  0  0  0  0  0
   -2.8814    0.9568   -0.2670 C   0  0  0  0  0  0  0  0  0  0  0  0
   -2.6257   -0.5229   -1.8576 H   0  0  0  0  0  0  0  0  0  0  0  0
   -0.1062   -0.6403   -1.6309 H   0  0  0  0  0  0  0  0  0  0  0  0
    2.6325    0.7168    0.2477 N   0  0  0  0  0  0  0  0  0  0  0  0
    3.7303    0.6691    0.3500 N   0  0  0  0  0  0  0  0  0  0  0  0
   -3.9650    1.0039   -0.3681 H   0  0  0  0  0  0  0  0  0  0  0  0
   -2.7975    2.4217    1.3554 H   0  0  0  0  0  0  0  0  0  0  0  0
   -0.2790    2.3198    1.5990 H   0  0  0  0  0  0  0  0  0  0  0  0
  1  2  2  0  0  0  0
  1  6  1  0  0  0  0
  2  3  1  0  0  0  0
  3  4  2  0  0  0  0
  4 13  1  0  0  0  0
  5  4  1  0  0  0  0
  5 12  1  0  0  0  0
  6  5  2  0  0  0  0
  7  1  1  0  0  0  0
  8  2  1  0  0  0  0
  9 10  3  0  0  0  0
 11  6  1  0  0  0  0
M  RAD  1   3   2
M  END
