Coordinates from ORCA-job Ph-N2+-B3LYPG-aug-cc-pVDZ-scan-d09-49-n400
 OpenBabel09291715233D

 13 12  0  0  0  0  0  0  0  0999 V2000
   -2.4075    0.1166   -1.1237 C   0  0  0  0  0  0  0  0  0  0  0  0
   -0.9756    0.0149   -1.0333 C   0  0  0  0  0  0  0  0  0  0  0  0
   -0.6594    0.8602   -0.0593 C   0  0  0  0  0  0  0  0  0  0  0  0
   -1.0764    1.7373    0.8462 C   0  0  0  0  0  0  0  0  0  0  0  0
   -2.5036    1.7599    0.6693 C   0  0  0  0  0  0  0  0  0  0  0  0
   -3.1367    0.9679   -0.2908 C   0  0  0  0  0  0  0  0  0  0  0  0
   -2.8787   -0.5128   -1.8822 H   0  0  0  0  0  0  0  0  0  0  0  0
   -0.3600   -0.6306   -1.6559 H   0  0  0  0  0  0  0  0  0  0  0  0
    4.0353    0.6556    0.3785 N   0  0  0  0  0  0  0  0  0  0  0  0
    5.1338    0.6077    0.4805 N   0  0  0  0  0  0  0  0  0  0  0  0
   -4.2204    1.0150   -0.3921 H   0  0  0  0  0  0  0  0  0  0  0  0
   -3.0511    2.4335    1.3326 H   0  0  0  0  0  0  0  0  0  0  0  0
   -0.5333    2.3324    1.5771 H   0  0  0  0  0  0  0  0  0  0  0  0
  1  2  2  0  0  0  0
  1  6  1  0  0  0  0
  2  3  1  0  0  0  0
  3  4  2  0  0  0  0
  4 13  1  0  0  0  0
  5  4  1  0  0  0  0
  5 12  1  0  0  0  0
  6  5  2  0  0  0  0
  7  1  1  0  0  0  0
  8  2  1  0  0  0  0
  9 10  3  0  0  0  0
 11  6  1  0  0  0  0
M  RAD  1   3   2
M  END
