Coordinates from ORCA-job Ph-N2+-B3LYPG-aug-cc-pVDZ-scan-d09-49-n400
 OpenBabel09291715233D

 13 12  0  0  0  0  0  0  0  0999 V2000
   -2.3052    0.1123   -1.1140 C   0  0  0  0  0  0  0  0  0  0  0  0
   -0.8737    0.0102   -1.0241 C   0  0  0  0  0  0  0  0  0  0  0  0
   -0.5539    0.8555   -0.0496 C   0  0  0  0  0  0  0  0  0  0  0  0
   -0.9743    1.7330    0.8558 C   0  0  0  0  0  0  0  0  0  0  0  0
   -2.4012    1.7553    0.6788 C   0  0  0  0  0  0  0  0  0  0  0  0
   -3.0343    0.9634   -0.2813 C   0  0  0  0  0  0  0  0  0  0  0  0
   -2.7770   -0.5168   -1.8723 H   0  0  0  0  0  0  0  0  0  0  0  0
   -0.2588   -0.6355   -1.6471 H   0  0  0  0  0  0  0  0  0  0  0  0
    3.4727    0.6802    0.3261 N   0  0  0  0  0  0  0  0  0  0  0  0
    4.5709    0.6324    0.4282 N   0  0  0  0  0  0  0  0  0  0  0  0
   -4.1180    1.0105   -0.3825 H   0  0  0  0  0  0  0  0  0  0  0  0
   -2.9491    2.4288    1.3418 H   0  0  0  0  0  0  0  0  0  0  0  0
   -0.4319    2.3284    1.5869 H   0  0  0  0  0  0  0  0  0  0  0  0
  1  2  2  0  0  0  0
  1  6  1  0  0  0  0
  2  3  1  0  0  0  0
  3  4  2  0  0  0  0
  4 13  1  0  0  0  0
  5  4  1  0  0  0  0
  5 12  1  0  0  0  0
  6  5  2  0  0  0  0
  7  1  1  0  0  0  0
  8  2  1  0  0  0  0
  9 10  3  0  0  0  0
 11  6  1  0  0  0  0
M  RAD  1   3   2
M  END
