Coordinates from ORCA-job Ph-N2+-B3LYPG-aug-cc-pVDZ-scan-d09-49-n400
 OpenBabel09291715233D

 13 12  0  0  0  0  0  0  0  0999 V2000
   -2.1238    0.1042   -1.0973 C   0  0  0  0  0  0  0  0  0  0  0  0
   -0.6952    0.0034   -1.0064 C   0  0  0  0  0  0  0  0  0  0  0  0
   -0.3611    0.8471   -0.0317 C   0  0  0  0  0  0  0  0  0  0  0  0
   -0.7957    1.7243    0.8713 C   0  0  0  0  0  0  0  0  0  0  0  0
   -2.2197    1.7476    0.6959 C   0  0  0  0  0  0  0  0  0  0  0  0
   -2.8530    0.9555   -0.2643 C   0  0  0  0  0  0  0  0  0  0  0  0
   -2.5987   -0.5235   -1.8544 H   0  0  0  0  0  0  0  0  0  0  0  0
   -0.0809   -0.6419   -1.6291 H   0  0  0  0  0  0  0  0  0  0  0  0
    2.4787    0.7235    0.2334 N   0  0  0  0  0  0  0  0  0  0  0  0
    3.5764    0.6758    0.3357 N   0  0  0  0  0  0  0  0  0  0  0  0
   -3.9366    1.0027   -0.3655 H   0  0  0  0  0  0  0  0  0  0  0  0
   -2.7705    2.4199    1.3572 H   0  0  0  0  0  0  0  0  0  0  0  0
   -0.2537    2.3192    1.6019 H   0  0  0  0  0  0  0  0  0  0  0  0
  1  2  2  0  0  0  0
  1  6  1  0  0  0  0
  2  3  1  0  0  0  0
  3  4  2  0  0  0  0
  4 13  1  0  0  0  0
  5  4  1  0  0  0  0
  5 12  1  0  0  0  0
  6  5  2  0  0  0  0
  7  1  1  0  0  0  0
  8  2  1  0  0  0  0
  9 10  3  0  0  0  0
 11  6  1  0  0  0  0
M  RAD  1   3   2
M  END
