Coordinates from ORCA-job Ph-N2+-B3LYPG-aug-cc-pVDZ-scan-d09-49-n400
 OpenBabel09291715233D

 13 12  0  0  0  0  0  0  0  0999 V2000
   -2.3757    0.1154   -1.1206 C   0  0  0  0  0  0  0  0  0  0  0  0
   -0.9440    0.0132   -1.0306 C   0  0  0  0  0  0  0  0  0  0  0  0
   -0.6248    0.8586   -0.0561 C   0  0  0  0  0  0  0  0  0  0  0  0
   -1.0448    1.7362    0.8493 C   0  0  0  0  0  0  0  0  0  0  0  0
   -2.4718    1.7584    0.6722 C   0  0  0  0  0  0  0  0  0  0  0  0
   -3.1048    0.9665   -0.2879 C   0  0  0  0  0  0  0  0  0  0  0  0
   -2.8472   -0.5139   -1.8790 H   0  0  0  0  0  0  0  0  0  0  0  0
   -0.3294   -0.6326   -1.6539 H   0  0  0  0  0  0  0  0  0  0  0  0
    3.8606    0.6633    0.3622 N   0  0  0  0  0  0  0  0  0  0  0  0
    4.9589    0.6154    0.4643 N   0  0  0  0  0  0  0  0  0  0  0  0
   -4.1885    1.0136   -0.3891 H   0  0  0  0  0  0  0  0  0  0  0  0
   -3.0195    2.4319    1.3353 H   0  0  0  0  0  0  0  0  0  0  0  0
   -0.5028    2.3317    1.5806 H   0  0  0  0  0  0  0  0  0  0  0  0
  1  2  2  0  0  0  0
  1  6  1  0  0  0  0
  2  3  1  0  0  0  0
  3  4  2  0  0  0  0
  4 13  1  0  0  0  0
  5  4  1  0  0  0  0
  5 12  1  0  0  0  0
  6  5  2  0  0  0  0
  7  1  1  0  0  0  0
  8  2  1  0  0  0  0
  9 10  3  0  0  0  0
 11  6  1  0  0  0  0
M  RAD  1   3   2
M  END
