Coordinates from ORCA-job Ph-N2+-B3LYPG-aug-cc-pVDZ-scan-d09-49-n400
 OpenBabel09291715233D

 13 12  0  0  0  0  0  0  0  0999 V2000
   -2.1885    0.1070   -1.1034 C   0  0  0  0  0  0  0  0  0  0  0  0
   -0.7578    0.0057   -1.0127 C   0  0  0  0  0  0  0  0  0  0  0  0
   -0.4368    0.8504   -0.0387 C   0  0  0  0  0  0  0  0  0  0  0  0
   -0.8583    1.7274    0.8659 C   0  0  0  0  0  0  0  0  0  0  0  0
   -2.2845    1.7504    0.6899 C   0  0  0  0  0  0  0  0  0  0  0  0
   -2.9178    0.9583   -0.2704 C   0  0  0  0  0  0  0  0  0  0  0  0
   -2.6613   -0.5217   -1.8613 H   0  0  0  0  0  0  0  0  0  0  0  0
   -0.1414   -0.6391   -1.6345 H   0  0  0  0  0  0  0  0  0  0  0  0
    2.8319    0.7082    0.2663 N   0  0  0  0  0  0  0  0  0  0  0  0
    3.9298    0.6604    0.3686 N   0  0  0  0  0  0  0  0  0  0  0  0
   -4.0015    1.0055   -0.3716 H   0  0  0  0  0  0  0  0  0  0  0  0
   -2.8332    2.4235    1.3524 H   0  0  0  0  0  0  0  0  0  0  0  0
   -0.3143    2.3217    1.5961 H   0  0  0  0  0  0  0  0  0  0  0  0
  1  2  2  0  0  0  0
  1  6  1  0  0  0  0
  2  3  1  0  0  0  0
  3  4  2  0  0  0  0
  4 13  1  0  0  0  0
  5  4  1  0  0  0  0
  5 12  1  0  0  0  0
  6  5  2  0  0  0  0
  7  1  1  0  0  0  0
  8  2  1  0  0  0  0
  9 10  3  0  0  0  0
 11  6  1  0  0  0  0
M  RAD  1   3   2
M  END
