Coordinates from ORCA-job Ph-N2+-B3LYPG-aug-cc-pVDZ-scan-d09-49-n400
 OpenBabel09291715233D

 13 13  0  0  0  0  0  0  0  0999 V2000
   -1.9915    0.0963   -1.0873 C   0  0  0  0  0  0  0  0  0  0  0  0
   -0.5867    0.0076   -0.9864 C   0  0  0  0  0  0  0  0  0  0  0  0
   -0.1252    0.8368   -0.0097 C   0  0  0  0  0  0  0  0  0  0  0  0
   -0.6860    1.7105    0.8717 C   0  0  0  0  0  0  0  0  0  0  0  0
   -2.0877    1.7440    0.7105 C   0  0  0  0  0  0  0  0  0  0  0  0
   -2.7212    0.9498   -0.2520 C   0  0  0  0  0  0  0  0  0  0  0  0
   -2.4891   -0.5207   -1.8358 H   0  0  0  0  0  0  0  0  0  0  0  0
    0.0195   -0.6405   -1.6135 H   0  0  0  0  0  0  0  0  0  0  0  0
    1.7773    0.7541    0.1679 N   0  0  0  0  0  0  0  0  0  0  0  0
    2.8742    0.7063    0.2703 N   0  0  0  0  0  0  0  0  0  0  0  0
   -3.8048    0.9969   -0.3532 H   0  0  0  0  0  0  0  0  0  0  0  0
   -2.6599    2.4074    1.3592 H   0  0  0  0  0  0  0  0  0  0  0  0
   -0.1526    2.3091    1.6051 H   0  0  0  0  0  0  0  0  0  0  0  0
  1  2  2  0  0  0  0
  1  6  1  0  0  0  0
  2  3  1  0  0  0  0
  3  9  1  0  0  0  0
  3  4  2  0  0  0  0
  4 13  1  0  0  0  0
  5  4  1  0  0  0  0
  5 12  1  0  0  0  0
  6  5  2  0  0  0  0
  7  1  1  0  0  0  0
  8  2  1  0  0  0  0
  9 10  1  0  0  0  0
 11  6  1  0  0  0  0
M  RAD  2   9   2  10   3
M  END
