Coordinates from ORCA-job Ph-N2+-B3LYPG-aug-cc-pVDZ-scan-d09-49-n400
 OpenBabel09291715233D

 13 13  0  0  0  0  0  0  0  0999 V2000
   -1.8888    0.0888   -1.0811 C   0  0  0  0  0  0  0  0  0  0  0  0
   -0.5216    0.0133   -0.9714 C   0  0  0  0  0  0  0  0  0  0  0  0
    0.2052    0.8237    0.0200 C   0  0  0  0  0  0  0  0  0  0  0  0
   -0.6200    1.6995    0.8685 C   0  0  0  0  0  0  0  0  0  0  0  0
   -1.9853    1.7426    0.7234 C   0  0  0  0  0  0  0  0  0  0  0  0
   -2.6261    0.9458   -0.2433 C   0  0  0  0  0  0  0  0  0  0  0  0
   -2.3980   -0.5234   -1.8253 H   0  0  0  0  0  0  0  0  0  0  0  0
    0.0850   -0.6385   -1.6017 H   0  0  0  0  0  0  0  0  0  0  0  0
    1.1702    0.7806    0.1111 N   0  0  0  0  0  0  0  0  0  0  0  0
    2.3119    0.7300    0.2186 N   0  0  0  0  0  0  0  0  0  0  0  0
   -3.7110    0.9927   -0.3443 H   0  0  0  0  0  0  0  0  0  0  0  0
   -2.5686    2.4016    1.3663 H   0  0  0  0  0  0  0  0  0  0  0  0
   -0.0865    2.3010    1.6058 H   0  0  0  0  0  0  0  0  0  0  0  0
  1  2  2  0  0  0  0
  1  6  1  0  0  0  0
  2  3  1  0  0  0  0
  3  9  1  0  0  0  0
  3  4  2  0  0  0  0
  4 13  1  0  0  0  0
  5  4  1  0  0  0  0
  5 12  1  0  0  0  0
  6  5  2  0  0  0  0
  7  1  1  0  0  0  0
  8  2  1  0  0  0  0
  9 10  1  0  0  0  0
 11  6  1  0  0  0  0
M  RAD  2   9   2  10   3
M  END
