Coordinates from ORCA-job Ph-N2+-B3LYPG-aug-cc-pVDZ-scan-d09-49-n400
 OpenBabel09291715233D

 13 12  0  0  0  0  0  0  0  0999 V2000
   -2.2684    0.1106   -1.1106 C   0  0  0  0  0  0  0  0  0  0  0  0
   -0.8370    0.0087   -1.0206 C   0  0  0  0  0  0  0  0  0  0  0  0
   -0.5167    0.8539   -0.0461 C   0  0  0  0  0  0  0  0  0  0  0  0
   -0.9377    1.7314    0.8592 C   0  0  0  0  0  0  0  0  0  0  0  0
   -2.3644    1.7537    0.6822 C   0  0  0  0  0  0  0  0  0  0  0  0
   -2.9975    0.9618   -0.2778 C   0  0  0  0  0  0  0  0  0  0  0  0
   -2.7404   -0.5184   -1.8688 H   0  0  0  0  0  0  0  0  0  0  0  0
   -0.2220   -0.6369   -1.6434 H   0  0  0  0  0  0  0  0  0  0  0  0
    3.2705    0.6890    0.3072 N   0  0  0  0  0  0  0  0  0  0  0  0
    4.3687    0.6412    0.4094 N   0  0  0  0  0  0  0  0  0  0  0  0
   -4.0812    1.0090   -0.3790 H   0  0  0  0  0  0  0  0  0  0  0  0
   -2.9125    2.4271    1.3451 H   0  0  0  0  0  0  0  0  0  0  0  0
   -0.3951    2.3266    1.5901 H   0  0  0  0  0  0  0  0  0  0  0  0
  1  2  2  0  0  0  0
  1  6  1  0  0  0  0
  2  3  1  0  0  0  0
  3  4  2  0  0  0  0
  4 13  1  0  0  0  0
  5  4  1  0  0  0  0
  5 12  1  0  0  0  0
  6  5  2  0  0  0  0
  7  1  1  0  0  0  0
  8  2  1  0  0  0  0
  9 10  3  0  0  0  0
 11  6  1  0  0  0  0
M  RAD  1   3   2
M  END
