Coordinates from ORCA-job Ph-N2+-B3LYPG-aug-cc-pVDZ-scan-d09-49-n400
 OpenBabel09291715233D

 13 13  0  0  0  0  0  0  0  0999 V2000
   -1.8948    0.0891   -1.0816 C   0  0  0  0  0  0  0  0  0  0  0  0
   -0.5251    0.0147   -0.9700 C   0  0  0  0  0  0  0  0  0  0  0  0
    0.1801    0.8237    0.0187 C   0  0  0  0  0  0  0  0  0  0  0  0
   -0.6233    1.6981    0.8668 C   0  0  0  0  0  0  0  0  0  0  0  0
   -1.9913    1.7428    0.7228 C   0  0  0  0  0  0  0  0  0  0  0  0
   -2.6312    0.9459   -0.2436 C   0  0  0  0  0  0  0  0  0  0  0  0
   -2.4040   -0.5226   -1.8258 H   0  0  0  0  0  0  0  0  0  0  0  0
    0.0771   -0.6383   -1.6028 H   0  0  0  0  0  0  0  0  0  0  0  0
    1.2150    0.7785    0.1154 N   0  0  0  0  0  0  0  0  0  0  0  0
    2.3487    0.7291    0.2213 N   0  0  0  0  0  0  0  0  0  0  0  0
   -3.7160    0.9931   -0.3449 H   0  0  0  0  0  0  0  0  0  0  0  0
   -2.5746    2.4018    1.3652 H   0  0  0  0  0  0  0  0  0  0  0  0
   -0.0944    2.3017    1.6053 H   0  0  0  0  0  0  0  0  0  0  0  0
  1  2  2  0  0  0  0
  1  6  1  0  0  0  0
  2  3  1  0  0  0  0
  3  9  1  0  0  0  0
  3  4  2  0  0  0  0
  4 13  1  0  0  0  0
  5  4  1  0  0  0  0
  5 12  1  0  0  0  0
  6  5  2  0  0  0  0
  7  1  1  0  0  0  0
  8  2  1  0  0  0  0
  9 10  1  0  0  0  0
 11  6  1  0  0  0  0
M  RAD  2   9   2  10   3
M  END
