Coordinates from ORCA-job Ph-N2+-B3LYPG-aug-cc-pVDZ-scan-d09-49-n400
 OpenBabel09291715233D

 13 12  0  0  0  0  0  0  0  0999 V2000
   -2.1083    0.1033   -1.0961 C   0  0  0  0  0  0  0  0  0  0  0  0
   -0.6804    0.0034   -1.0043 C   0  0  0  0  0  0  0  0  0  0  0  0
   -0.3455    0.8464   -0.0302 C   0  0  0  0  0  0  0  0  0  0  0  0
   -0.7807    1.7229    0.8720 C   0  0  0  0  0  0  0  0  0  0  0  0
   -2.2042    1.7472    0.6976 C   0  0  0  0  0  0  0  0  0  0  0  0
   -2.8377    0.9549   -0.2629 C   0  0  0  0  0  0  0  0  0  0  0  0
   -2.5839   -0.5241   -1.8530 H   0  0  0  0  0  0  0  0  0  0  0  0
   -0.0651   -0.6414   -1.6263 H   0  0  0  0  0  0  0  0  0  0  0  0
    2.3946    0.7272    0.2255 N   0  0  0  0  0  0  0  0  0  0  0  0
    3.4923    0.6794    0.3279 N   0  0  0  0  0  0  0  0  0  0  0  0
   -3.9213    1.0020   -0.3640 H   0  0  0  0  0  0  0  0  0  0  0  0
   -2.7557    2.4192    1.3586 H   0  0  0  0  0  0  0  0  0  0  0  0
   -0.2378    2.3173    1.6021 H   0  0  0  0  0  0  0  0  0  0  0  0
  1  2  2  0  0  0  0
  1  6  1  0  0  0  0
  2  3  1  0  0  0  0
  3  4  2  0  0  0  0
  4 13  1  0  0  0  0
  5  4  1  0  0  0  0
  5 12  1  0  0  0  0
  6  5  2  0  0  0  0
  7  1  1  0  0  0  0
  8  2  1  0  0  0  0
  9 10  3  0  0  0  0
 11  6  1  0  0  0  0
M  RAD  1   3   2
M  END
