Coordinates from ORCA-job Ph-N2+-B3LYPG-aug-cc-pVDZ-scan-d09-49-n400
 OpenBabel09291715233D

 13 13  0  0  0  0  0  0  0  0999 V2000
   -1.9633    0.0934   -1.0865 C   0  0  0  0  0  0  0  0  0  0  0  0
   -0.5691    0.0114   -0.9798 C   0  0  0  0  0  0  0  0  0  0  0  0
   -0.0446    0.8333   -0.0022 C   0  0  0  0  0  0  0  0  0  0  0  0
   -0.6679    1.7052    0.8684 C   0  0  0  0  0  0  0  0  0  0  0  0
   -2.0597    1.7444    0.7150 C   0  0  0  0  0  0  0  0  0  0  0  0
   -2.6933    0.9486   -0.2494 C   0  0  0  0  0  0  0  0  0  0  0  0
   -2.4699   -0.5191   -1.8314 H   0  0  0  0  0  0  0  0  0  0  0  0
    0.0338   -0.6387   -1.6094 H   0  0  0  0  0  0  0  0  0  0  0  0
    1.6285    0.7605    0.1540 N   0  0  0  0  0  0  0  0  0  0  0  0
    2.7273    0.7127    0.2565 N   0  0  0  0  0  0  0  0  0  0  0  0
   -3.7771    0.9957   -0.3506 H   0  0  0  0  0  0  0  0  0  0  0  0
   -2.6405    2.4042    1.3584 H   0  0  0  0  0  0  0  0  0  0  0  0
   -0.1380    2.3060    1.6037 H   0  0  0  0  0  0  0  0  0  0  0  0
  1  2  2  0  0  0  0
  1  6  1  0  0  0  0
  2  3  1  0  0  0  0
  3  9  1  0  0  0  0
  3  4  2  0  0  0  0
  4 13  1  0  0  0  0
  5  4  1  0  0  0  0
  5 12  1  0  0  0  0
  6  5  2  0  0  0  0
  7  1  1  0  0  0  0
  8  2  1  0  0  0  0
  9 10  1  0  0  0  0
 11  6  1  0  0  0  0
M  RAD  2   9   2  10   3
M  END
