Coordinates from ORCA-job Ph-N2+-B3LYPG-aug-cc-pVDZ-scan-d09-49-n400
 OpenBabel09291715233D

 13 13  0  0  0  0  0  0  0  0999 V2000
   -1.9516    0.0923   -1.0861 C   0  0  0  0  0  0  0  0  0  0  0  0
   -0.5620    0.0131   -0.9770 C   0  0  0  0  0  0  0  0  0  0  0  0
   -0.0085    0.8318    0.0012 C   0  0  0  0  0  0  0  0  0  0  0  0
   -0.6606    1.7029    0.8669 C   0  0  0  0  0  0  0  0  0  0  0  0
   -2.0480    1.7445    0.7168 C   0  0  0  0  0  0  0  0  0  0  0  0
   -2.6820    0.9481   -0.2483 C   0  0  0  0  0  0  0  0  0  0  0  0
   -2.4608   -0.5190   -1.8300 H   0  0  0  0  0  0  0  0  0  0  0  0
    0.0391   -0.6381   -1.6080 H   0  0  0  0  0  0  0  0  0  0  0  0
    1.5649    0.7633    0.1481 N   0  0  0  0  0  0  0  0  0  0  0  0
    2.6658    0.7154    0.2508 N   0  0  0  0  0  0  0  0  0  0  0  0
   -3.7660    0.9952   -0.3495 H   0  0  0  0  0  0  0  0  0  0  0  0
   -2.6314    2.4033    1.3587 H   0  0  0  0  0  0  0  0  0  0  0  0
   -0.1326    2.3050    1.6033 H   0  0  0  0  0  0  0  0  0  0  0  0
  1  2  2  0  0  0  0
  1  6  1  0  0  0  0
  2  3  1  0  0  0  0
  3  9  1  0  0  0  0
  3  4  2  0  0  0  0
  4 13  1  0  0  0  0
  5  4  1  0  0  0  0
  5 12  1  0  0  0  0
  6  5  2  0  0  0  0
  7  1  1  0  0  0  0
  8  2  1  0  0  0  0
  9 10  1  0  0  0  0
 11  6  1  0  0  0  0
M  RAD  2   9   2  10   3
M  END
