Coordinates from ORCA-job Ph-N2+-B3LYPG-aug-cc-pVDZ-scan-d09-49-n400
 OpenBabel09291715233D

 13 13  0  0  0  0  0  0  0  0999 V2000
   -1.9077    0.0895   -1.0829 C   0  0  0  0  0  0  0  0  0  0  0  0
   -0.5330    0.0159   -0.9698 C   0  0  0  0  0  0  0  0  0  0  0  0
    0.1304    0.8256    0.0143 C   0  0  0  0  0  0  0  0  0  0  0  0
   -0.6311    1.6975    0.8651 C   0  0  0  0  0  0  0  0  0  0  0  0
   -2.0042    1.7435    0.7218 C   0  0  0  0  0  0  0  0  0  0  0  0
   -2.6419    0.9463   -0.2446 C   0  0  0  0  0  0  0  0  0  0  0  0
   -2.4181   -0.5213   -1.8265 H   0  0  0  0  0  0  0  0  0  0  0  0
    0.0644   -0.6382   -1.6046 H   0  0  0  0  0  0  0  0  0  0  0  0
    1.3049    0.7746    0.1238 N   0  0  0  0  0  0  0  0  0  0  0  0
    2.4254    0.7260    0.2283 N   0  0  0  0  0  0  0  0  0  0  0  0
   -3.7266    0.9935   -0.3459 H   0  0  0  0  0  0  0  0  0  0  0  0
   -2.5887    2.4019    1.3631 H   0  0  0  0  0  0  0  0  0  0  0  0
   -0.1072    2.3029    1.6046 H   0  0  0  0  0  0  0  0  0  0  0  0
  1  2  2  0  0  0  0
  1  6  1  0  0  0  0
  2  3  1  0  0  0  0
  3  9  1  0  0  0  0
  3  4  2  0  0  0  0
  4 13  1  0  0  0  0
  5  4  1  0  0  0  0
  5 12  1  0  0  0  0
  6  5  2  0  0  0  0
  7  1  1  0  0  0  0
  8  2  1  0  0  0  0
  9 10  1  0  0  0  0
 11  6  1  0  0  0  0
M  RAD  2   9   2  10   3
M  END
