Coordinates from ORCA-job Ph-N2+-B3LYPG-aug-cc-pVDZ-scan-d09-49-n400
 OpenBabel09291715233D

 13 12  0  0  0  0  0  0  0  0999 V2000
   -2.3278    0.1131   -1.1163 C   0  0  0  0  0  0  0  0  0  0  0  0
   -0.8960    0.0114   -1.0259 C   0  0  0  0  0  0  0  0  0  0  0  0
   -0.5794    0.8566   -0.0519 C   0  0  0  0  0  0  0  0  0  0  0  0
   -0.9967    1.7338    0.8535 C   0  0  0  0  0  0  0  0  0  0  0  0
   -2.4238    1.7564    0.6768 C   0  0  0  0  0  0  0  0  0  0  0  0
   -3.0570    0.9644   -0.2834 C   0  0  0  0  0  0  0  0  0  0  0  0
   -2.7993   -0.5161   -1.8747 H   0  0  0  0  0  0  0  0  0  0  0  0
   -0.2801   -0.6338   -1.6483 H   0  0  0  0  0  0  0  0  0  0  0  0
    3.5968    0.6748    0.3376 N   0  0  0  0  0  0  0  0  0  0  0  0
    4.6951    0.6269    0.4398 N   0  0  0  0  0  0  0  0  0  0  0  0
   -4.1407    1.0115   -0.3846 H   0  0  0  0  0  0  0  0  0  0  0  0
   -2.9715    2.4300    1.3400 H   0  0  0  0  0  0  0  0  0  0  0  0
   -0.4533    2.3286    1.5842 H   0  0  0  0  0  0  0  0  0  0  0  0
  1  2  2  0  0  0  0
  1  6  1  0  0  0  0
  2  3  1  0  0  0  0
  3  4  2  0  0  0  0
  4 13  1  0  0  0  0
  5  4  1  0  0  0  0
  5 12  1  0  0  0  0
  6  5  2  0  0  0  0
  7  1  1  0  0  0  0
  8  2  1  0  0  0  0
  9 10  3  0  0  0  0
 11  6  1  0  0  0  0
M  RAD  1   3   2
M  END
