Coordinates from ORCA-job Ph-N2+-B3LYPG-aug-cc-pVDZ-scan-d09-49-n400
 OpenBabel09291715233D

 13 12  0  0  0  0  0  0  0  0999 V2000
   -2.0097    0.0979   -1.0881 C   0  0  0  0  0  0  0  0  0  0  0  0
   -0.5990    0.0059   -0.9901 C   0  0  0  0  0  0  0  0  0  0  0  0
   -0.1702    0.8388   -0.0139 C   0  0  0  0  0  0  0  0  0  0  0  0
   -0.6986    1.7133    0.8730 C   0  0  0  0  0  0  0  0  0  0  0  0
   -2.1057    1.7440    0.7080 C   0  0  0  0  0  0  0  0  0  0  0  0
   -2.7393    0.9506   -0.2537 C   0  0  0  0  0  0  0  0  0  0  0  0
   -2.5014   -0.5219   -1.8389 H   0  0  0  0  0  0  0  0  0  0  0  0
    0.0086   -0.6416   -1.6161 H   0  0  0  0  0  0  0  0  0  0  0  0
    1.8719    0.7499    0.1767 N   0  0  0  0  0  0  0  0  0  0  0  0
    2.9688    0.7022    0.2791 N   0  0  0  0  0  0  0  0  0  0  0  0
   -3.8229    0.9977   -0.3548 H   0  0  0  0  0  0  0  0  0  0  0  0
   -2.6724    2.4098    1.3600 H   0  0  0  0  0  0  0  0  0  0  0  0
   -0.1637    2.3111    1.6057 H   0  0  0  0  0  0  0  0  0  0  0  0
  1  2  2  0  0  0  0
  1  6  1  0  0  0  0
  2  3  1  0  0  0  0
  3  4  2  0  0  0  0
  4 13  1  0  0  0  0
  5  4  1  0  0  0  0
  5 12  1  0  0  0  0
  6  5  2  0  0  0  0
  7  1  1  0  0  0  0
  8  2  1  0  0  0  0
  9 10  3  0  0  0  0
 11  6  1  0  0  0  0
M  RAD  1   3   2
M  END
