Coordinates from ORCA-job Ph-N2+-B3LYPG-aug-cc-pVDZ-scan-d09-49-n400
 OpenBabel09291715233D

 13 12  0  0  0  0  0  0  0  0999 V2000
   -2.1058    0.1033   -1.0957 C   0  0  0  0  0  0  0  0  0  0  0  0
   -0.6784    0.0030   -1.0044 C   0  0  0  0  0  0  0  0  0  0  0  0
   -0.3386    0.8461   -0.0296 C   0  0  0  0  0  0  0  0  0  0  0  0
   -0.7788    1.7232    0.8725 C   0  0  0  0  0  0  0  0  0  0  0  0
   -2.2017    1.7469    0.6976 C   0  0  0  0  0  0  0  0  0  0  0  0
   -2.8351    0.9547   -0.2626 C   0  0  0  0  0  0  0  0  0  0  0  0
   -2.5818   -0.5238   -1.8524 H   0  0  0  0  0  0  0  0  0  0  0  0
   -0.0647   -0.6424   -1.6273 H   0  0  0  0  0  0  0  0  0  0  0  0
    2.3816    0.7278    0.2243 N   0  0  0  0  0  0  0  0  0  0  0  0
    3.4792    0.6800    0.3266 N   0  0  0  0  0  0  0  0  0  0  0  0
   -3.9187    1.0019   -0.3638 H   0  0  0  0  0  0  0  0  0  0  0  0
   -2.7535    2.4187    1.3584 H   0  0  0  0  0  0  0  0  0  0  0  0
   -0.2375    2.3183    1.6032 H   0  0  0  0  0  0  0  0  0  0  0  0
  1  2  2  0  0  0  0
  1  6  1  0  0  0  0
  2  3  1  0  0  0  0
  3  4  2  0  0  0  0
  4 13  1  0  0  0  0
  5  4  1  0  0  0  0
  5 12  1  0  0  0  0
  6  5  2  0  0  0  0
  7  1  1  0  0  0  0
  8  2  1  0  0  0  0
  9 10  3  0  0  0  0
 11  6  1  0  0  0  0
M  RAD  1   3   2
M  END
