Coordinates from ORCA-job Ph-N2+-B3LYPG-aug-cc-pVDZ-scan-d09-49-n400
 OpenBabel09291715233D

 13 12  0  0  0  0  0  0  0  0999 V2000
   -2.2103    0.1081   -1.1052 C   0  0  0  0  0  0  0  0  0  0  0  0
   -0.7793    0.0062   -1.0152 C   0  0  0  0  0  0  0  0  0  0  0  0
   -0.4571    0.8513   -0.0406 C   0  0  0  0  0  0  0  0  0  0  0  0
   -0.8799    1.7288    0.8644 C   0  0  0  0  0  0  0  0  0  0  0  0
   -2.3062    1.7512    0.6877 C   0  0  0  0  0  0  0  0  0  0  0  0
   -2.9394    0.9593   -0.2724 C   0  0  0  0  0  0  0  0  0  0  0  0
   -2.6829   -0.5206   -1.8632 H   0  0  0  0  0  0  0  0  0  0  0  0
   -0.1640   -0.6391   -1.6377 H   0  0  0  0  0  0  0  0  0  0  0  0
    2.9512    0.7030    0.2775 N   0  0  0  0  0  0  0  0  0  0  0  0
    4.0492    0.6552    0.3797 N   0  0  0  0  0  0  0  0  0  0  0  0
   -4.0230    1.0064   -0.3736 H   0  0  0  0  0  0  0  0  0  0  0  0
   -2.8549    2.4244    1.3503 H   0  0  0  0  0  0  0  0  0  0  0  0
   -0.3370    2.3237    1.5951 H   0  0  0  0  0  0  0  0  0  0  0  0
  1  2  2  0  0  0  0
  1  6  1  0  0  0  0
  2  3  1  0  0  0  0
  3  4  2  0  0  0  0
  4 13  1  0  0  0  0
  5  4  1  0  0  0  0
  5 12  1  0  0  0  0
  6  5  2  0  0  0  0
  7  1  1  0  0  0  0
  8  2  1  0  0  0  0
  9 10  3  0  0  0  0
 11  6  1  0  0  0  0
M  RAD  1   3   2
M  END
