Coordinates from ORCA-job Ph-N2+-B3LYPG-aug-cc-pVDZ-scan-d09-49-n400
 OpenBabel09291715233D

 13 12  0  0  0  0  0  0  0  0999 V2000
   -2.1294    0.1043   -1.0979 C   0  0  0  0  0  0  0  0  0  0  0  0
   -0.7005    0.0039   -1.0066 C   0  0  0  0  0  0  0  0  0  0  0  0
   -0.3704    0.8475   -0.0325 C   0  0  0  0  0  0  0  0  0  0  0  0
   -0.8009    1.7242    0.8706 C   0  0  0  0  0  0  0  0  0  0  0  0
   -2.2253    1.7479    0.6955 C   0  0  0  0  0  0  0  0  0  0  0  0
   -2.8588    0.9558   -0.2649 C   0  0  0  0  0  0  0  0  0  0  0  0
   -2.6039   -0.5235   -1.8552 H   0  0  0  0  0  0  0  0  0  0  0  0
   -0.0850   -0.6410   -1.6287 H   0  0  0  0  0  0  0  0  0  0  0  0
    2.5093    0.7222    0.2362 N   0  0  0  0  0  0  0  0  0  0  0  0
    3.6070    0.6744    0.3386 N   0  0  0  0  0  0  0  0  0  0  0  0
   -3.9424    1.0029   -0.3660 H   0  0  0  0  0  0  0  0  0  0  0  0
   -2.7757    2.4204    1.3571 H   0  0  0  0  0  0  0  0  0  0  0  0
   -0.2577    2.3187    1.6008 H   0  0  0  0  0  0  0  0  0  0  0  0
  1  2  2  0  0  0  0
  1  6  1  0  0  0  0
  2  3  1  0  0  0  0
  3  4  2  0  0  0  0
  4 13  1  0  0  0  0
  5  4  1  0  0  0  0
  5 12  1  0  0  0  0
  6  5  2  0  0  0  0
  7  1  1  0  0  0  0
  8  2  1  0  0  0  0
  9 10  3  0  0  0  0
 11  6  1  0  0  0  0
M  RAD  1   3   2
M  END
