Coordinates from ORCA-job Ph-N2+-B3LYPG-aug-cc-pVDZ-scan-d09-49-n400
 OpenBabel09291715233D

 13 13  0  0  0  0  0  0  0  0999 V2000
   -1.9346    0.0908   -1.0853 C   0  0  0  0  0  0  0  0  0  0  0  0
   -0.5511    0.0150   -0.9733 C   0  0  0  0  0  0  0  0  0  0  0  0
    0.0448    0.8294    0.0062 C   0  0  0  0  0  0  0  0  0  0  0  0
   -0.6494    1.7000    0.8652 C   0  0  0  0  0  0  0  0  0  0  0  0
   -2.0311    1.7445    0.7191 C   0  0  0  0  0  0  0  0  0  0  0  0
   -2.6659    0.9474   -0.2468 C   0  0  0  0  0  0  0  0  0  0  0  0
   -2.4457   -0.5195   -1.8284 H   0  0  0  0  0  0  0  0  0  0  0  0
    0.0472   -0.6378   -1.6066 H   0  0  0  0  0  0  0  0  0  0  0  0
    1.4686    0.7675    0.1391 N   0  0  0  0  0  0  0  0  0  0  0  0
    2.5746    0.7194    0.2423 N   0  0  0  0  0  0  0  0  0  0  0  0
   -3.7503    0.9946   -0.3481 H   0  0  0  0  0  0  0  0  0  0  0  0
   -2.6162    2.4025    1.3599 H   0  0  0  0  0  0  0  0  0  0  0  0
   -0.1245    2.3040    1.6034 H   0  0  0  0  0  0  0  0  0  0  0  0
  1  2  2  0  0  0  0
  1  6  1  0  0  0  0
  2  3  1  0  0  0  0
  3  9  1  0  0  0  0
  3  4  2  0  0  0  0
  4 13  1  0  0  0  0
  5  4  1  0  0  0  0
  5 12  1  0  0  0  0
  6  5  2  0  0  0  0
  7  1  1  0  0  0  0
  8  2  1  0  0  0  0
  9 10  1  0  0  0  0
 11  6  1  0  0  0  0
M  RAD  2   9   2  10   3
M  END
