Coordinates from ORCA-job Ph-N2+-B3LYPG-aug-cc-pVDZ-scan-d09-49-n400
 OpenBabel09291715233D

 13 13  0  0  0  0  0  0  0  0999 V2000
   -1.9290    0.0905   -1.0849 C   0  0  0  0  0  0  0  0  0  0  0  0
   -0.5474    0.0155   -0.9723 C   0  0  0  0  0  0  0  0  0  0  0  0
    0.0621    0.8287    0.0078 C   0  0  0  0  0  0  0  0  0  0  0  0
   -0.6457    1.6992    0.8649 C   0  0  0  0  0  0  0  0  0  0  0  0
   -2.0255    1.7444    0.7198 C   0  0  0  0  0  0  0  0  0  0  0  0
   -2.6608    0.9472   -0.2464 C   0  0  0  0  0  0  0  0  0  0  0  0
   -2.4403   -0.5198   -1.8280 H   0  0  0  0  0  0  0  0  0  0  0  0
    0.0502   -0.6378   -1.6061 H   0  0  0  0  0  0  0  0  0  0  0  0
    1.4360    0.7689    0.1361 N   0  0  0  0  0  0  0  0  0  0  0  0
    2.5443    0.7207    0.2395 N   0  0  0  0  0  0  0  0  0  0  0  0
   -3.7453    0.9943   -0.3476 H   0  0  0  0  0  0  0  0  0  0  0  0
   -2.6108    2.4023    1.3605 H   0  0  0  0  0  0  0  0  0  0  0  0
   -0.1214    2.3037    1.6035 H   0  0  0  0  0  0  0  0  0  0  0  0
  1  2  2  0  0  0  0
  1  6  1  0  0  0  0
  2  3  1  0  0  0  0
  3  9  1  0  0  0  0
  3  4  2  0  0  0  0
  4 13  1  0  0  0  0
  5  4  1  0  0  0  0
  5 12  1  0  0  0  0
  6  5  2  0  0  0  0
  7  1  1  0  0  0  0
  8  2  1  0  0  0  0
  9 10  1  0  0  0  0
 11  6  1  0  0  0  0
M  RAD  2   9   2  10   3
M  END
