Coordinates from ORCA-job Ph-N2+-B3LYPG-aug-cc-pVDZ-scan-d09-49-n400
 OpenBabel09291715233D

 13 13  0  0  0  0  0  0  0  0999 V2000
   -1.8900    0.0888   -1.0811 C   0  0  0  0  0  0  0  0  0  0  0  0
   -0.5227    0.0129   -0.9708 C   0  0  0  0  0  0  0  0  0  0  0  0
    0.2022    0.8205    0.0228 C   0  0  0  0  0  0  0  0  0  0  0  0
   -0.6210    1.6988    0.8688 C   0  0  0  0  0  0  0  0  0  0  0  0
   -1.9865    1.7426    0.7234 C   0  0  0  0  0  0  0  0  0  0  0  0
   -2.6273    0.9455   -0.2431 C   0  0  0  0  0  0  0  0  0  0  0  0
   -2.3990   -0.5224   -1.8262 H   0  0  0  0  0  0  0  0  0  0  0  0
    0.0837   -0.6382   -1.6020 H   0  0  0  0  0  0  0  0  0  0  0  0
    1.1775    0.7797    0.1123 N   0  0  0  0  0  0  0  0  0  0  0  0
    2.3190    0.7324    0.2167 N   0  0  0  0  0  0  0  0  0  0  0  0
   -3.7121    0.9933   -0.3448 H   0  0  0  0  0  0  0  0  0  0  0  0
   -2.5697    2.4026    1.3653 H   0  0  0  0  0  0  0  0  0  0  0  0
   -0.0878    2.3013    1.6055 H   0  0  0  0  0  0  0  0  0  0  0  0
  1  2  2  0  0  0  0
  1  6  1  0  0  0  0
  2  3  1  0  0  0  0
  3  9  1  0  0  0  0
  3  4  2  0  0  0  0
  4 13  1  0  0  0  0
  5  4  1  0  0  0  0
  5 12  1  0  0  0  0
  6  5  2  0  0  0  0
  7  1  1  0  0  0  0
  8  2  1  0  0  0  0
  9 10  1  0  0  0  0
 11  6  1  0  0  0  0
M  RAD  2   9   2  10   3
M  END
