Coordinates from ORCA-job Ph-N2+-B3LYPG-aug-cc-pVDZ-scan-d09-49-n400
 OpenBabel09291715233D

 13 12  0  0  0  0  0  0  0  0999 V2000
   -2.0910    0.1026   -1.0944 C   0  0  0  0  0  0  0  0  0  0  0  0
   -0.6647    0.0028   -1.0028 C   0  0  0  0  0  0  0  0  0  0  0  0
   -0.3188    0.8453   -0.0277 C   0  0  0  0  0  0  0  0  0  0  0  0
   -0.7650    1.7222    0.8734 C   0  0  0  0  0  0  0  0  0  0  0  0
   -2.1869    1.7463    0.6991 C   0  0  0  0  0  0  0  0  0  0  0  0
   -2.8202    0.9541   -0.2613 C   0  0  0  0  0  0  0  0  0  0  0  0
   -2.5682   -0.5240   -1.8507 H   0  0  0  0  0  0  0  0  0  0  0  0
   -0.0517   -0.6428   -1.6260 H   0  0  0  0  0  0  0  0  0  0  0  0
    2.3017    0.7312    0.2169 N   0  0  0  0  0  0  0  0  0  0  0  0
    3.3992    0.6835    0.3192 N   0  0  0  0  0  0  0  0  0  0  0  0
   -3.9038    1.0012   -0.3624 H   0  0  0  0  0  0  0  0  0  0  0  0
   -2.7398    2.4177    1.3592 H   0  0  0  0  0  0  0  0  0  0  0  0
   -0.2245    2.3176    1.6043 H   0  0  0  0  0  0  0  0  0  0  0  0
  1  2  2  0  0  0  0
  1  6  1  0  0  0  0
  2  3  1  0  0  0  0
  3  4  2  0  0  0  0
  4 13  1  0  0  0  0
  5  4  1  0  0  0  0
  5 12  1  0  0  0  0
  6  5  2  0  0  0  0
  7  1  1  0  0  0  0
  8  2  1  0  0  0  0
  9 10  3  0  0  0  0
 11  6  1  0  0  0  0
M  RAD  1   3   2
M  END
