Coordinates from ORCA-job Ph-N2+-B3LYPG-aug-cc-pVDZ-scan-d09-49-n400
 OpenBabel09291715233D

 13 12  0  0  0  0  0  0  0  0999 V2000
   -2.0452    0.1003   -1.0905 C   0  0  0  0  0  0  0  0  0  0  0  0
   -0.6260    0.0040   -0.9960 C   0  0  0  0  0  0  0  0  0  0  0  0
   -0.2433    0.8420   -0.0207 C   0  0  0  0  0  0  0  0  0  0  0  0
   -0.7260    1.7176    0.8738 C   0  0  0  0  0  0  0  0  0  0  0  0
   -2.1412    1.7446    0.7037 C   0  0  0  0  0  0  0  0  0  0  0  0
   -2.7749    0.9521   -0.2570 C   0  0  0  0  0  0  0  0  0  0  0  0
   -2.5280   -0.5236   -1.8446 H   0  0  0  0  0  0  0  0  0  0  0  0
   -0.0160   -0.6425   -1.6207 H   0  0  0  0  0  0  0  0  0  0  0  0
    2.0581    0.7419    0.1941 N   0  0  0  0  0  0  0  0  0  0  0  0
    3.1553    0.6941    0.2965 N   0  0  0  0  0  0  0  0  0  0  0  0
   -3.8584    0.9993   -0.3582 H   0  0  0  0  0  0  0  0  0  0  0  0
   -2.6994    2.4138    1.3607 H   0  0  0  0  0  0  0  0  0  0  0  0
   -0.1885    2.3142    1.6056 H   0  0  0  0  0  0  0  0  0  0  0  0
  1  2  2  0  0  0  0
  1  6  1  0  0  0  0
  2  3  1  0  0  0  0
  3  4  2  0  0  0  0
  4 13  1  0  0  0  0
  5  4  1  0  0  0  0
  5 12  1  0  0  0  0
  6  5  2  0  0  0  0
  7  1  1  0  0  0  0
  8  2  1  0  0  0  0
  9 10  3  0  0  0  0
 11  6  1  0  0  0  0
M  RAD  1   3   2
M  END
