Coordinates from ORCA-job Ph-N2+-B3LYPG-aug-cc-pVDZ-scan-d09-49-n400
 OpenBabel09291715233D

 13 13  0  0  0  0  0  0  0  0999 V2000
   -1.9066    0.0895   -1.0828 C   0  0  0  0  0  0  0  0  0  0  0  0
   -0.5322    0.0158   -0.9698 C   0  0  0  0  0  0  0  0  0  0  0  0
    0.1336    0.8258    0.0143 C   0  0  0  0  0  0  0  0  0  0  0  0
   -0.6303    1.6976    0.8653 C   0  0  0  0  0  0  0  0  0  0  0  0
   -2.0032    1.7434    0.7219 C   0  0  0  0  0  0  0  0  0  0  0  0
   -2.6409    0.9463   -0.2445 C   0  0  0  0  0  0  0  0  0  0  0  0
   -2.4170   -0.5214   -1.8264 H   0  0  0  0  0  0  0  0  0  0  0  0
    0.0652   -0.6384   -1.6046 H   0  0  0  0  0  0  0  0  0  0  0  0
    1.2981    0.7749    0.1231 N   0  0  0  0  0  0  0  0  0  0  0  0
    2.4193    0.7261    0.2279 N   0  0  0  0  0  0  0  0  0  0  0  0
   -3.7256    0.9935   -0.3458 H   0  0  0  0  0  0  0  0  0  0  0  0
   -2.5876    2.4018    1.3633 H   0  0  0  0  0  0  0  0  0  0  0  0
   -0.1064    2.3029    1.6048 H   0  0  0  0  0  0  0  0  0  0  0  0
  1  2  2  0  0  0  0
  1  6  1  0  0  0  0
  2  3  1  0  0  0  0
  3  9  1  0  0  0  0
  3  4  2  0  0  0  0
  4 13  1  0  0  0  0
  5  4  1  0  0  0  0
  5 12  1  0  0  0  0
  6  5  2  0  0  0  0
  7  1  1  0  0  0  0
  8  2  1  0  0  0  0
  9 10  1  0  0  0  0
 11  6  1  0  0  0  0
M  RAD  2   9   2  10   3
M  END
