Coordinates from ORCA-job Ph-N2+-B3LYPG-aug-cc-pVDZ-scan-d09-49-n400
 OpenBabel09291715233D

 13 12  0  0  0  0  0  0  0  0999 V2000
   -2.1691    0.1062   -1.1015 C   0  0  0  0  0  0  0  0  0  0  0  0
   -0.7389    0.0047   -1.0111 C   0  0  0  0  0  0  0  0  0  0  0  0
   -0.4133    0.8494   -0.0365 C   0  0  0  0  0  0  0  0  0  0  0  0
   -0.8394    1.7267    0.8679 C   0  0  0  0  0  0  0  0  0  0  0  0
   -2.2650    1.7495    0.6916 C   0  0  0  0  0  0  0  0  0  0  0  0
   -2.8983    0.9575   -0.2685 C   0  0  0  0  0  0  0  0  0  0  0  0
   -2.6425   -0.5221   -1.8591 H   0  0  0  0  0  0  0  0  0  0  0  0
   -0.1237   -0.6405   -1.6336 H   0  0  0  0  0  0  0  0  0  0  0  0
    2.7258    0.7128    0.2564 N   0  0  0  0  0  0  0  0  0  0  0  0
    3.8236    0.6650    0.3587 N   0  0  0  0  0  0  0  0  0  0  0  0
   -3.9819    1.0046   -0.3697 H   0  0  0  0  0  0  0  0  0  0  0  0
   -2.8144    2.4223    1.3538 H   0  0  0  0  0  0  0  0  0  0  0  0
   -0.2966    2.3215    1.5985 H   0  0  0  0  0  0  0  0  0  0  0  0
  1  2  2  0  0  0  0
  1  6  1  0  0  0  0
  2  3  1  0  0  0  0
  3  4  2  0  0  0  0
  4 13  1  0  0  0  0
  5  4  1  0  0  0  0
  5 12  1  0  0  0  0
  6  5  2  0  0  0  0
  7  1  1  0  0  0  0
  8  2  1  0  0  0  0
  9 10  3  0  0  0  0
 11  6  1  0  0  0  0
M  RAD  1   3   2
M  END
