Coordinates from ORCA-job Ph-N2+-B3LYPG-aug-cc-pVDZ-scan-d09-49-n400
 OpenBabel09291715233D

 13 12  0  0  0  0  0  0  0  0999 V2000
   -2.0494    0.1006   -1.0908 C   0  0  0  0  0  0  0  0  0  0  0  0
   -0.6295    0.0039   -0.9966 C   0  0  0  0  0  0  0  0  0  0  0  0
   -0.2509    0.8423   -0.0214 C   0  0  0  0  0  0  0  0  0  0  0  0
   -0.7295    1.7180    0.8738 C   0  0  0  0  0  0  0  0  0  0  0  0
   -2.1454    1.7447    0.7033 C   0  0  0  0  0  0  0  0  0  0  0  0
   -2.7791    0.9523   -0.2574 C   0  0  0  0  0  0  0  0  0  0  0  0
   -2.5315   -0.5238   -1.8452 H   0  0  0  0  0  0  0  0  0  0  0  0
   -0.0192   -0.6426   -1.6211 H   0  0  0  0  0  0  0  0  0  0  0  0
    2.0804    0.7409    0.1962 N   0  0  0  0  0  0  0  0  0  0  0  0
    3.1776    0.6931    0.2985 N   0  0  0  0  0  0  0  0  0  0  0  0
   -3.8626    0.9994   -0.3586 H   0  0  0  0  0  0  0  0  0  0  0  0
   -2.7029    2.4143    1.3606 H   0  0  0  0  0  0  0  0  0  0  0  0
   -0.1917    2.3145    1.6055 H   0  0  0  0  0  0  0  0  0  0  0  0
  1  2  2  0  0  0  0
  1  6  1  0  0  0  0
  2  3  1  0  0  0  0
  3  4  2  0  0  0  0
  4 13  1  0  0  0  0
  5  4  1  0  0  0  0
  5 12  1  0  0  0  0
  6  5  2  0  0  0  0
  7  1  1  0  0  0  0
  8  2  1  0  0  0  0
  9 10  3  0  0  0  0
 11  6  1  0  0  0  0
M  RAD  1   3   2
M  END
