Coordinates from ORCA-job Ph-N2+-B3LYPG-aug-cc-pVDZ-scan-d09-49-n400
 OpenBabel09291715233D

 13 12  0  0  0  0  0  0  0  0999 V2000
   -2.4197    0.1171   -1.1249 C   0  0  0  0  0  0  0  0  0  0  0  0
   -0.9879    0.0154   -1.0344 C   0  0  0  0  0  0  0  0  0  0  0  0
   -0.6717    0.8607   -0.0604 C   0  0  0  0  0  0  0  0  0  0  0  0
   -1.0886    1.7379    0.8450 C   0  0  0  0  0  0  0  0  0  0  0  0
   -2.5159    1.7604    0.6682 C   0  0  0  0  0  0  0  0  0  0  0  0
   -3.1490    0.9684   -0.2920 C   0  0  0  0  0  0  0  0  0  0  0  0
   -2.8910   -0.5122   -1.8833 H   0  0  0  0  0  0  0  0  0  0  0  0
   -0.3723   -0.6301   -1.6571 H   0  0  0  0  0  0  0  0  0  0  0  0
    4.1028    0.6527    0.3848 N   0  0  0  0  0  0  0  0  0  0  0  0
    5.2013    0.6048    0.4868 N   0  0  0  0  0  0  0  0  0  0  0  0
   -4.2327    1.0155   -0.3933 H   0  0  0  0  0  0  0  0  0  0  0  0
   -3.0634    2.4341    1.3315 H   0  0  0  0  0  0  0  0  0  0  0  0
   -0.5456    2.3330    1.5760 H   0  0  0  0  0  0  0  0  0  0  0  0
  1  2  2  0  0  0  0
  1  6  1  0  0  0  0
  2  3  1  0  0  0  0
  3  4  2  0  0  0  0
  4 13  1  0  0  0  0
  5  4  1  0  0  0  0
  5 12  1  0  0  0  0
  6  5  2  0  0  0  0
  7  1  1  0  0  0  0
  8  2  1  0  0  0  0
  9 10  3  0  0  0  0
 11  6  1  0  0  0  0
M  RAD  1   3   2
M  END
