Coordinates from ORCA-job Ph-N2+-B3LYPG-aug-cc-pVDZ-scan-d09-49-n400
 OpenBabel09291715233D

 13 12  0  0  0  0  0  0  0  0999 V2000
   -2.1703    0.1062   -1.1017 C   0  0  0  0  0  0  0  0  0  0  0  0
   -0.7399    0.0051   -1.0108 C   0  0  0  0  0  0  0  0  0  0  0  0
   -0.4171    0.8495   -0.0369 C   0  0  0  0  0  0  0  0  0  0  0  0
   -0.8404    1.7265    0.8674 C   0  0  0  0  0  0  0  0  0  0  0  0
   -2.2662    1.7496    0.6916 C   0  0  0  0  0  0  0  0  0  0  0  0
   -2.8996    0.9575   -0.2687 C   0  0  0  0  0  0  0  0  0  0  0  0
   -2.6434   -0.5223   -1.8594 H   0  0  0  0  0  0  0  0  0  0  0  0
   -0.1236   -0.6397   -1.6327 H   0  0  0  0  0  0  0  0  0  0  0  0
    2.7319    0.7125    0.2570 N   0  0  0  0  0  0  0  0  0  0  0  0
    3.8298    0.6647    0.3593 N   0  0  0  0  0  0  0  0  0  0  0  0
   -3.9832    1.0047   -0.3698 H   0  0  0  0  0  0  0  0  0  0  0  0
   -2.8153    2.4226    1.3539 H   0  0  0  0  0  0  0  0  0  0  0  0
   -0.2964    2.3207    1.5976 H   0  0  0  0  0  0  0  0  0  0  0  0
  1  2  2  0  0  0  0
  1  6  1  0  0  0  0
  2  3  1  0  0  0  0
  3  4  2  0  0  0  0
  4 13  1  0  0  0  0
  5  4  1  0  0  0  0
  5 12  1  0  0  0  0
  6  5  2  0  0  0  0
  7  1  1  0  0  0  0
  8  2  1  0  0  0  0
  9 10  3  0  0  0  0
 11  6  1  0  0  0  0
M  RAD  1   3   2
M  END
