Coordinates from ORCA-job Ph-N2+-B3LYPG-aug-cc-pVDZ-scan-d09-49-n400
 OpenBabel09291715233D

 13 12  0  0  0  0  0  0  0  0999 V2000
   -2.4309    0.1178   -1.1257 C   0  0  0  0  0  0  0  0  0  0  0  0
   -0.9991    0.0156   -1.0358 C   0  0  0  0  0  0  0  0  0  0  0  0
   -0.6800    0.8611   -0.0612 C   0  0  0  0  0  0  0  0  0  0  0  0
   -1.1000    1.7386    0.8443 C   0  0  0  0  0  0  0  0  0  0  0  0
   -2.5270    1.7608    0.6670 C   0  0  0  0  0  0  0  0  0  0  0  0
   -3.1600    0.9689   -0.2930 C   0  0  0  0  0  0  0  0  0  0  0  0
   -2.9023   -0.5115   -1.8842 H   0  0  0  0  0  0  0  0  0  0  0  0
   -0.3848   -0.6303   -1.6591 H   0  0  0  0  0  0  0  0  0  0  0  0
    4.1643    0.6500    0.3905 N   0  0  0  0  0  0  0  0  0  0  0  0
    5.2627    0.6021    0.4925 N   0  0  0  0  0  0  0  0  0  0  0  0
   -4.2437    1.0160   -0.3943 H   0  0  0  0  0  0  0  0  0  0  0  0
   -3.0747    2.4344    1.3302 H   0  0  0  0  0  0  0  0  0  0  0  0
   -0.5583    2.3343    1.5757 H   0  0  0  0  0  0  0  0  0  0  0  0
  1  2  2  0  0  0  0
  1  6  1  0  0  0  0
  2  3  1  0  0  0  0
  3  4  2  0  0  0  0
  4 13  1  0  0  0  0
  5  4  1  0  0  0  0
  5 12  1  0  0  0  0
  6  5  2  0  0  0  0
  7  1  1  0  0  0  0
  8  2  1  0  0  0  0
  9 10  3  0  0  0  0
 11  6  1  0  0  0  0
M  RAD  1   3   2
M  END
