Coordinates from ORCA-job Ph-N2+-B3LYPG-aug-cc-pVDZ-scan-d09-49-n400
 OpenBabel09291715233D

 13 12  0  0  0  0  0  0  0  0999 V2000
   -2.0889    0.1023   -1.0945 C   0  0  0  0  0  0  0  0  0  0  0  0
   -0.6624    0.0031   -1.0021 C   0  0  0  0  0  0  0  0  0  0  0  0
   -0.3202    0.8453   -0.0279 C   0  0  0  0  0  0  0  0  0  0  0  0
   -0.7627    1.7217    0.8731 C   0  0  0  0  0  0  0  0  0  0  0  0
   -2.1849    1.7464    0.6995 C   0  0  0  0  0  0  0  0  0  0  0  0
   -2.8184    0.9540   -0.2611 C   0  0  0  0  0  0  0  0  0  0  0  0
   -2.5662   -0.5243   -1.8507 H   0  0  0  0  0  0  0  0  0  0  0  0
   -0.0478   -0.6418   -1.6244 H   0  0  0  0  0  0  0  0  0  0  0  0
    2.2903    0.7317    0.2158 N   0  0  0  0  0  0  0  0  0  0  0  0
    3.3878    0.6840    0.3181 N   0  0  0  0  0  0  0  0  0  0  0  0
   -3.9019    1.0012   -0.3622 H   0  0  0  0  0  0  0  0  0  0  0  0
   -2.7378    2.4178    1.3596 H   0  0  0  0  0  0  0  0  0  0  0  0
   -0.2205    2.3163    1.6034 H   0  0  0  0  0  0  0  0  0  0  0  0
  1  2  2  0  0  0  0
  1  6  1  0  0  0  0
  2  3  1  0  0  0  0
  3  4  2  0  0  0  0
  4 13  1  0  0  0  0
  5  4  1  0  0  0  0
  5 12  1  0  0  0  0
  6  5  2  0  0  0  0
  7  1  1  0  0  0  0
  8  2  1  0  0  0  0
  9 10  3  0  0  0  0
 11  6  1  0  0  0  0
M  RAD  1   3   2
M  END
