Coordinates from ORCA-job Ph-N2+-B3LYPG-aug-cc-pVDZ-scan-d09-49-n400
 OpenBabel09291715233D

 13 12  0  0  0  0  0  0  0  0999 V2000
   -2.0530    0.1006   -1.0913 C   0  0  0  0  0  0  0  0  0  0  0  0
   -0.6316    0.0036   -0.9972 C   0  0  0  0  0  0  0  0  0  0  0  0
   -0.2616    0.8428   -0.0224 C   0  0  0  0  0  0  0  0  0  0  0  0
   -0.7317    1.7185    0.8740 C   0  0  0  0  0  0  0  0  0  0  0  0
   -2.1490    1.7450    0.7031 C   0  0  0  0  0  0  0  0  0  0  0  0
   -2.7827    0.9525   -0.2577 C   0  0  0  0  0  0  0  0  0  0  0  0
   -2.5345   -0.5240   -1.8459 H   0  0  0  0  0  0  0  0  0  0  0  0
   -0.0207   -0.6425   -1.6213 H   0  0  0  0  0  0  0  0  0  0  0  0
    2.0996    0.7400    0.1980 N   0  0  0  0  0  0  0  0  0  0  0  0
    3.1969    0.6923    0.3003 N   0  0  0  0  0  0  0  0  0  0  0  0
   -3.8662    0.9996   -0.3589 H   0  0  0  0  0  0  0  0  0  0  0  0
   -2.7060    2.4148    1.3608 H   0  0  0  0  0  0  0  0  0  0  0  0
   -0.1933    2.3146    1.6054 H   0  0  0  0  0  0  0  0  0  0  0  0
  1  2  2  0  0  0  0
  1  6  1  0  0  0  0
  2  3  1  0  0  0  0
  3  4  2  0  0  0  0
  4 13  1  0  0  0  0
  5  4  1  0  0  0  0
  5 12  1  0  0  0  0
  6  5  2  0  0  0  0
  7  1  1  0  0  0  0
  8  2  1  0  0  0  0
  9 10  3  0  0  0  0
 11  6  1  0  0  0  0
M  RAD  1   3   2
M  END
