Coordinates from ORCA-job Ph-N2+-B3LYPG-aug-cc-pVDZ-scan-d09-49-n400
 OpenBabel09291715233D

 13 13  0  0  0  0  0  0  0  0999 V2000
   -1.8915    0.0890   -1.0813 C   0  0  0  0  0  0  0  0  0  0  0  0
   -0.5234    0.0140   -0.9709 C   0  0  0  0  0  0  0  0  0  0  0  0
    0.1950    0.8241    0.0191 C   0  0  0  0  0  0  0  0  0  0  0  0
   -0.6217    1.6989    0.8677 C   0  0  0  0  0  0  0  0  0  0  0  0
   -1.9880    1.7427    0.7231 C   0  0  0  0  0  0  0  0  0  0  0  0
   -2.6285    0.9459   -0.2435 C   0  0  0  0  0  0  0  0  0  0  0  0
   -2.4007   -0.5232   -1.8254 H   0  0  0  0  0  0  0  0  0  0  0  0
    0.0815   -0.6383   -1.6020 H   0  0  0  0  0  0  0  0  0  0  0  0
    1.1899    0.7798    0.1129 N   0  0  0  0  0  0  0  0  0  0  0  0
    2.3284    0.7293    0.2201 N   0  0  0  0  0  0  0  0  0  0  0  0
   -3.7134    0.9928   -0.3445 H   0  0  0  0  0  0  0  0  0  0  0  0
   -2.5713    2.4016    1.3660 H   0  0  0  0  0  0  0  0  0  0  0  0
   -0.0900    2.3012    1.6055 H   0  0  0  0  0  0  0  0  0  0  0  0
  1  2  2  0  0  0  0
  1  6  1  0  0  0  0
  2  3  1  0  0  0  0
  3  9  1  0  0  0  0
  3  4  2  0  0  0  0
  4 13  1  0  0  0  0
  5  4  1  0  0  0  0
  5 12  1  0  0  0  0
  6  5  2  0  0  0  0
  7  1  1  0  0  0  0
  8  2  1  0  0  0  0
  9 10  1  0  0  0  0
 11  6  1  0  0  0  0
M  RAD  2   9   2  10   3
M  END
