Coordinates from ORCA-job Ph-N2+-B3LYPG-aug-cc-pVDZ-scan-d09-49-n400
 OpenBabel09291715233D

 13 12  0  0  0  0  0  0  0  0999 V2000
   -2.3787    0.1155   -1.1209 C   0  0  0  0  0  0  0  0  0  0  0  0
   -0.9471    0.0134   -1.0309 C   0  0  0  0  0  0  0  0  0  0  0  0
   -0.6278    0.8588   -0.0564 C   0  0  0  0  0  0  0  0  0  0  0  0
   -1.0478    1.7363    0.8491 C   0  0  0  0  0  0  0  0  0  0  0  0
   -2.4748    1.7585    0.6719 C   0  0  0  0  0  0  0  0  0  0  0  0
   -3.1079    0.9666   -0.2881 C   0  0  0  0  0  0  0  0  0  0  0  0
   -2.8503   -0.5137   -1.8793 H   0  0  0  0  0  0  0  0  0  0  0  0
   -0.3325   -0.6325   -1.6542 H   0  0  0  0  0  0  0  0  0  0  0  0
    3.8774    0.6625    0.3638 N   0  0  0  0  0  0  0  0  0  0  0  0
    4.9758    0.6146    0.4659 N   0  0  0  0  0  0  0  0  0  0  0  0
   -4.1916    1.0137   -0.3894 H   0  0  0  0  0  0  0  0  0  0  0  0
   -3.0226    2.4321    1.3350 H   0  0  0  0  0  0  0  0  0  0  0  0
   -0.5059    2.3319    1.5804 H   0  0  0  0  0  0  0  0  0  0  0  0
  1  2  2  0  0  0  0
  1  6  1  0  0  0  0
  2  3  1  0  0  0  0
  3  4  2  0  0  0  0
  4 13  1  0  0  0  0
  5  4  1  0  0  0  0
  5 12  1  0  0  0  0
  6  5  2  0  0  0  0
  7  1  1  0  0  0  0
  8  2  1  0  0  0  0
  9 10  3  0  0  0  0
 11  6  1  0  0  0  0
M  RAD  1   3   2
M  END
