Coordinates from ORCA-job Ph-N2+-B3LYPG-aug-cc-pVDZ-scan-d09-49-n400
 OpenBabel09291715233D

 13 12  0  0  0  0  0  0  0  0999 V2000
   -2.1931    0.1072   -1.1038 C   0  0  0  0  0  0  0  0  0  0  0  0
   -0.7623    0.0059   -1.0131 C   0  0  0  0  0  0  0  0  0  0  0  0
   -0.4417    0.8506   -0.0392 C   0  0  0  0  0  0  0  0  0  0  0  0
   -0.8628    1.7276    0.8655 C   0  0  0  0  0  0  0  0  0  0  0  0
   -2.2890    1.7506    0.6894 C   0  0  0  0  0  0  0  0  0  0  0  0
   -2.9224    0.9585   -0.2708 C   0  0  0  0  0  0  0  0  0  0  0  0
   -2.6657   -0.5215   -1.8617 H   0  0  0  0  0  0  0  0  0  0  0  0
   -0.1459   -0.6389   -1.6350 H   0  0  0  0  0  0  0  0  0  0  0  0
    2.8569    0.7071    0.2687 N   0  0  0  0  0  0  0  0  0  0  0  0
    3.9548    0.6593    0.3709 N   0  0  0  0  0  0  0  0  0  0  0  0
   -4.0060    1.0057   -0.3720 H   0  0  0  0  0  0  0  0  0  0  0  0
   -2.8377    2.4237    1.3520 H   0  0  0  0  0  0  0  0  0  0  0  0
   -0.3187    2.3219    1.5958 H   0  0  0  0  0  0  0  0  0  0  0  0
  1  2  2  0  0  0  0
  1  6  1  0  0  0  0
  2  3  1  0  0  0  0
  3  4  2  0  0  0  0
  4 13  1  0  0  0  0
  5  4  1  0  0  0  0
  5 12  1  0  0  0  0
  6  5  2  0  0  0  0
  7  1  1  0  0  0  0
  8  2  1  0  0  0  0
  9 10  3  0  0  0  0
 11  6  1  0  0  0  0
M  RAD  1   3   2
M  END
