Coordinates from ORCA-job Ph-N2+-B3LYPG-aug-cc-pVDZ-scan-d09-49-n400
 OpenBabel09291715233D

 13 12  0  0  0  0  0  0  0  0999 V2000
   -2.3818    0.1156   -1.1212 C   0  0  0  0  0  0  0  0  0  0  0  0
   -0.9501    0.0135   -1.0312 C   0  0  0  0  0  0  0  0  0  0  0  0
   -0.6309    0.8589   -0.0567 C   0  0  0  0  0  0  0  0  0  0  0  0
   -1.0509    1.7365    0.8488 C   0  0  0  0  0  0  0  0  0  0  0  0
   -2.4779    1.7586    0.6716 C   0  0  0  0  0  0  0  0  0  0  0  0
   -3.1109    0.9667   -0.2884 C   0  0  0  0  0  0  0  0  0  0  0  0
   -2.8533   -0.5136   -1.8795 H   0  0  0  0  0  0  0  0  0  0  0  0
   -0.3356   -0.6323   -1.6544 H   0  0  0  0  0  0  0  0  0  0  0  0
    3.8943    0.6618    0.3654 N   0  0  0  0  0  0  0  0  0  0  0  0
    4.9927    0.6139    0.4674 N   0  0  0  0  0  0  0  0  0  0  0  0
   -4.1946    1.0139   -0.3897 H   0  0  0  0  0  0  0  0  0  0  0  0
   -3.0256    2.4322    1.3347 H   0  0  0  0  0  0  0  0  0  0  0  0
   -0.5090    2.3320    1.5801 H   0  0  0  0  0  0  0  0  0  0  0  0
  1  2  2  0  0  0  0
  1  6  1  0  0  0  0
  2  3  1  0  0  0  0
  3  4  2  0  0  0  0
  4 13  1  0  0  0  0
  5  4  1  0  0  0  0
  5 12  1  0  0  0  0
  6  5  2  0  0  0  0
  7  1  1  0  0  0  0
  8  2  1  0  0  0  0
  9 10  3  0  0  0  0
 11  6  1  0  0  0  0
M  RAD  1   3   2
M  END
