Coordinates from ORCA-job Ph-N2+-B3LYPG-aug-cc-pVDZ-scan-d09-49-n400
 OpenBabel09291715233D

 13 13  0  0  0  0  0  0  0  0999 V2000
   -1.9890    0.0961   -1.0872 C   0  0  0  0  0  0  0  0  0  0  0  0
   -0.5850    0.0079   -0.9859 C   0  0  0  0  0  0  0  0  0  0  0  0
   -0.1185    0.8365   -0.0090 C   0  0  0  0  0  0  0  0  0  0  0  0
   -0.6843    1.7101    0.8714 C   0  0  0  0  0  0  0  0  0  0  0  0
   -2.0851    1.7440    0.7109 C   0  0  0  0  0  0  0  0  0  0  0  0
   -2.7187    0.9497   -0.2518 C   0  0  0  0  0  0  0  0  0  0  0  0
   -2.4874   -0.5205   -1.8354 H   0  0  0  0  0  0  0  0  0  0  0  0
    0.0209   -0.6404   -1.6131 H   0  0  0  0  0  0  0  0  0  0  0  0
    1.7641    0.7546    0.1667 N   0  0  0  0  0  0  0  0  0  0  0  0
    2.8610    0.7069    0.2690 N   0  0  0  0  0  0  0  0  0  0  0  0
   -3.8023    0.9968   -0.3529 H   0  0  0  0  0  0  0  0  0  0  0  0
   -2.6582    2.4071    1.3591 H   0  0  0  0  0  0  0  0  0  0  0  0
   -0.1512    2.3088    1.6049 H   0  0  0  0  0  0  0  0  0  0  0  0
  1  2  2  0  0  0  0
  1  6  1  0  0  0  0
  2  3  1  0  0  0  0
  3  9  1  0  0  0  0
  3  4  2  0  0  0  0
  4 13  1  0  0  0  0
  5  4  1  0  0  0  0
  5 12  1  0  0  0  0
  6  5  2  0  0  0  0
  7  1  1  0  0  0  0
  8  2  1  0  0  0  0
  9 10  1  0  0  0  0
 11  6  1  0  0  0  0
M  RAD  2   9   2  10   3
M  END
