Coordinates from ORCA-job Ph-N2+-B3LYPG-aug-cc-pVDZ-scan-d09-49-n400
 OpenBabel09291715233D

 13 12  0  0  0  0  0  0  0  0999 V2000
   -2.1566    0.1056   -1.1004 C   0  0  0  0  0  0  0  0  0  0  0  0
   -0.7266    0.0046   -1.0095 C   0  0  0  0  0  0  0  0  0  0  0  0
   -0.4020    0.8489   -0.0355 C   0  0  0  0  0  0  0  0  0  0  0  0
   -0.8271    1.7257    0.8685 C   0  0  0  0  0  0  0  0  0  0  0  0
   -2.2525    1.7491    0.6929 C   0  0  0  0  0  0  0  0  0  0  0  0
   -2.8859    0.9570   -0.2674 C   0  0  0  0  0  0  0  0  0  0  0  0
   -2.6301   -0.5228   -1.8581 H   0  0  0  0  0  0  0  0  0  0  0  0
   -0.1105   -0.6401   -1.6313 H   0  0  0  0  0  0  0  0  0  0  0  0
    2.6573    0.7158    0.2500 N   0  0  0  0  0  0  0  0  0  0  0  0
    3.7551    0.6680    0.3523 N   0  0  0  0  0  0  0  0  0  0  0  0
   -3.9696    1.0041   -0.3686 H   0  0  0  0  0  0  0  0  0  0  0  0
   -2.8019    2.4219    1.3550 H   0  0  0  0  0  0  0  0  0  0  0  0
   -0.2833    2.3201    1.5987 H   0  0  0  0  0  0  0  0  0  0  0  0
  1  2  2  0  0  0  0
  1  6  1  0  0  0  0
  2  3  1  0  0  0  0
  3  4  2  0  0  0  0
  4 13  1  0  0  0  0
  5  4  1  0  0  0  0
  5 12  1  0  0  0  0
  6  5  2  0  0  0  0
  7  1  1  0  0  0  0
  8  2  1  0  0  0  0
  9 10  3  0  0  0  0
 11  6  1  0  0  0  0
M  RAD  1   3   2
M  END
