Coordinates from ORCA-job Ph-N2+-B3LYPG-aug-cc-pVDZ-scan-d09-49-n400
 OpenBabel09291715233D

 13 12  0  0  0  0  0  0  0  0999 V2000
   -2.0851    0.1024   -1.0938 C   0  0  0  0  0  0  0  0  0  0  0  0
   -0.6594    0.0027   -1.0021 C   0  0  0  0  0  0  0  0  0  0  0  0
   -0.3105    0.8449   -0.0270 C   0  0  0  0  0  0  0  0  0  0  0  0
   -0.7597    1.7218    0.8737 C   0  0  0  0  0  0  0  0  0  0  0  0
   -2.1810    1.7460    0.6996 C   0  0  0  0  0  0  0  0  0  0  0  0
   -2.8144    0.9538   -0.2607 C   0  0  0  0  0  0  0  0  0  0  0  0
   -2.5628   -0.5240   -1.8499 H   0  0  0  0  0  0  0  0  0  0  0  0
   -0.0467   -0.6429   -1.6254 H   0  0  0  0  0  0  0  0  0  0  0  0
    2.2701    0.7326    0.2139 N   0  0  0  0  0  0  0  0  0  0  0  0
    3.3676    0.6849    0.3162 N   0  0  0  0  0  0  0  0  0  0  0  0
   -3.8980    1.0010   -0.3619 H   0  0  0  0  0  0  0  0  0  0  0  0
   -2.7344    2.4173    1.3595 H   0  0  0  0  0  0  0  0  0  0  0  0
   -0.2194    2.3173    1.6046 H   0  0  0  0  0  0  0  0  0  0  0  0
  1  2  2  0  0  0  0
  1  6  1  0  0  0  0
  2  3  1  0  0  0  0
  3  4  2  0  0  0  0
  4 13  1  0  0  0  0
  5  4  1  0  0  0  0
  5 12  1  0  0  0  0
  6  5  2  0  0  0  0
  7  1  1  0  0  0  0
  8  2  1  0  0  0  0
  9 10  3  0  0  0  0
 11  6  1  0  0  0  0
M  RAD  1   3   2
M  END
