Coordinates from ORCA-job Ph-N2+-B3LYPG-aug-cc-pVDZ-scan-d09-49-n400
 OpenBabel09291715233D

 13 12  0  0  0  0  0  0  0  0999 V2000
   -2.1328    0.1046   -1.0981 C   0  0  0  0  0  0  0  0  0  0  0  0
   -0.7038    0.0036   -1.0074 C   0  0  0  0  0  0  0  0  0  0  0  0
   -0.3720    0.8476   -0.0327 C   0  0  0  0  0  0  0  0  0  0  0  0
   -0.8043    1.7248    0.8707 C   0  0  0  0  0  0  0  0  0  0  0  0
   -2.2287    1.7480    0.6950 C   0  0  0  0  0  0  0  0  0  0  0  0
   -2.8620    0.9559   -0.2652 C   0  0  0  0  0  0  0  0  0  0  0  0
   -2.6073   -0.5233   -1.8554 H   0  0  0  0  0  0  0  0  0  0  0  0
   -0.0892   -0.6416   -1.6300 H   0  0  0  0  0  0  0  0  0  0  0  0
    2.5277    0.7214    0.2380 N   0  0  0  0  0  0  0  0  0  0  0  0
    3.6254    0.6736    0.3403 N   0  0  0  0  0  0  0  0  0  0  0  0
   -3.9456    1.0031   -0.3663 H   0  0  0  0  0  0  0  0  0  0  0  0
   -2.7791    2.4204    1.3566 H   0  0  0  0  0  0  0  0  0  0  0  0
   -0.2620    2.3197    1.6013 H   0  0  0  0  0  0  0  0  0  0  0  0
  1  2  2  0  0  0  0
  1  6  1  0  0  0  0
  2  3  1  0  0  0  0
  3  4  2  0  0  0  0
  4 13  1  0  0  0  0
  5  4  1  0  0  0  0
  5 12  1  0  0  0  0
  6  5  2  0  0  0  0
  7  1  1  0  0  0  0
  8  2  1  0  0  0  0
  9 10  3  0  0  0  0
 11  6  1  0  0  0  0
M  RAD  1   3   2
M  END
