Coordinates from ORCA-job Ph-N2+-B3LYPG-aug-cc-pVDZ-scan-d09-49-n400
 OpenBabel09291715233D

 13 12  0  0  0  0  0  0  0  0999 V2000
   -2.2450    0.1095   -1.1086 C   0  0  0  0  0  0  0  0  0  0  0  0
   -0.8137    0.0080   -1.0181 C   0  0  0  0  0  0  0  0  0  0  0  0
   -0.4957    0.8530   -0.0442 C   0  0  0  0  0  0  0  0  0  0  0  0
   -0.9143    1.7300    0.8610 C   0  0  0  0  0  0  0  0  0  0  0  0
   -2.3410    1.7528    0.6846 C   0  0  0  0  0  0  0  0  0  0  0  0
   -2.9743    0.9608   -0.2757 C   0  0  0  0  0  0  0  0  0  0  0  0
   -2.7170   -0.5195   -1.8668 H   0  0  0  0  0  0  0  0  0  0  0  0
   -0.1974   -0.6370   -1.6402 H   0  0  0  0  0  0  0  0  0  0  0  0
    3.1420    0.6946    0.2952 N   0  0  0  0  0  0  0  0  0  0  0  0
    4.2401    0.6468    0.3975 N   0  0  0  0  0  0  0  0  0  0  0  0
   -4.0580    1.0079   -0.3769 H   0  0  0  0  0  0  0  0  0  0  0  0
   -2.8891    2.4262    1.3475 H   0  0  0  0  0  0  0  0  0  0  0  0
   -0.3703    2.3246    1.5914 H   0  0  0  0  0  0  0  0  0  0  0  0
  1  2  2  0  0  0  0
  1  6  1  0  0  0  0
  2  3  1  0  0  0  0
  3  4  2  0  0  0  0
  4 13  1  0  0  0  0
  5  4  1  0  0  0  0
  5 12  1  0  0  0  0
  6  5  2  0  0  0  0
  7  1  1  0  0  0  0
  8  2  1  0  0  0  0
  9 10  3  0  0  0  0
 11  6  1  0  0  0  0
M  RAD  1   3   2
M  END
