Coordinates from ORCA-job Ph-N2+-B3LYPG-aug-cc-pVDZ-scan-d09-49-n400
 OpenBabel09291715233D

 13 12  0  0  0  0  0  0  0  0999 V2000
   -2.2868    0.1115   -1.1123 C   0  0  0  0  0  0  0  0  0  0  0  0
   -0.8553    0.0094   -1.0223 C   0  0  0  0  0  0  0  0  0  0  0  0
   -0.5353    0.8547   -0.0478 C   0  0  0  0  0  0  0  0  0  0  0  0
   -0.9560    1.7322    0.8575 C   0  0  0  0  0  0  0  0  0  0  0  0
   -2.3828    1.7545    0.6805 C   0  0  0  0  0  0  0  0  0  0  0  0
   -3.0159    0.9626   -0.2795 C   0  0  0  0  0  0  0  0  0  0  0  0
   -2.7587   -0.5176   -1.8706 H   0  0  0  0  0  0  0  0  0  0  0  0
   -0.2404   -0.6362   -1.6453 H   0  0  0  0  0  0  0  0  0  0  0  0
    3.3716    0.6846    0.3166 N   0  0  0  0  0  0  0  0  0  0  0  0
    4.4698    0.6368    0.4188 N   0  0  0  0  0  0  0  0  0  0  0  0
   -4.0996    1.0097   -0.3808 H   0  0  0  0  0  0  0  0  0  0  0  0
   -2.9308    2.4279    1.3435 H   0  0  0  0  0  0  0  0  0  0  0  0
   -0.4135    2.3275    1.5885 H   0  0  0  0  0  0  0  0  0  0  0  0
  1  2  2  0  0  0  0
  1  6  1  0  0  0  0
  2  3  1  0  0  0  0
  3  4  2  0  0  0  0
  4 13  1  0  0  0  0
  5  4  1  0  0  0  0
  5 12  1  0  0  0  0
  6  5  2  0  0  0  0
  7  1  1  0  0  0  0
  8  2  1  0  0  0  0
  9 10  3  0  0  0  0
 11  6  1  0  0  0  0
M  RAD  1   3   2
M  END
