Coordinates from ORCA-job Ph-N2+-B3LYPG-aug-cc-pVDZ-scan-d09-49-n400
 OpenBabel09291715233D

 13 12  0  0  0  0  0  0  0  0999 V2000
   -2.2757    0.1108   -1.1114 C   0  0  0  0  0  0  0  0  0  0  0  0
   -0.8441    0.0092   -1.0210 C   0  0  0  0  0  0  0  0  0  0  0  0
   -0.5268    0.8543   -0.0470 C   0  0  0  0  0  0  0  0  0  0  0  0
   -0.9447    1.7314    0.8582 C   0  0  0  0  0  0  0  0  0  0  0  0
   -2.3717    1.7542    0.6817 C   0  0  0  0  0  0  0  0  0  0  0  0
   -3.0049    0.9621   -0.2785 C   0  0  0  0  0  0  0  0  0  0  0  0
   -2.7474   -0.5183   -1.8697 H   0  0  0  0  0  0  0  0  0  0  0  0
   -0.2280   -0.6359   -1.6432 H   0  0  0  0  0  0  0  0  0  0  0  0
    3.3103    0.6873    0.3109 N   0  0  0  0  0  0  0  0  0  0  0  0
    4.4085    0.6395    0.4131 N   0  0  0  0  0  0  0  0  0  0  0  0
   -4.0886    1.0093   -0.3797 H   0  0  0  0  0  0  0  0  0  0  0  0
   -2.9195    2.4276    1.3447 H   0  0  0  0  0  0  0  0  0  0  0  0
   -0.4010    2.3261    1.5888 H   0  0  0  0  0  0  0  0  0  0  0  0
  1  2  2  0  0  0  0
  1  6  1  0  0  0  0
  2  3  1  0  0  0  0
  3  4  2  0  0  0  0
  4 13  1  0  0  0  0
  5  4  1  0  0  0  0
  5 12  1  0  0  0  0
  6  5  2  0  0  0  0
  7  1  1  0  0  0  0
  8  2  1  0  0  0  0
  9 10  3  0  0  0  0
 11  6  1  0  0  0  0
M  RAD  1   3   2
M  END
