Coordinates from ORCA-job Ph-N2+-B3LYPG-aug-cc-pVDZ-scan-d09-49-n400
 OpenBabel09291715233D

 13 13  0  0  0  0  0  0  0  0999 V2000
   -1.9436    0.0915   -1.0858 C   0  0  0  0  0  0  0  0  0  0  0  0
   -0.5569    0.0141   -0.9751 C   0  0  0  0  0  0  0  0  0  0  0  0
    0.0166    0.8307    0.0036 C   0  0  0  0  0  0  0  0  0  0  0  0
   -0.6554    1.7014    0.8660 C   0  0  0  0  0  0  0  0  0  0  0  0
   -2.0401    1.7446    0.7179 C   0  0  0  0  0  0  0  0  0  0  0  0
   -2.6743    0.9477   -0.2476 C   0  0  0  0  0  0  0  0  0  0  0  0
   -2.4540   -0.5191   -1.8292 H   0  0  0  0  0  0  0  0  0  0  0  0
    0.0427   -0.6379   -1.6073 H   0  0  0  0  0  0  0  0  0  0  0  0
    1.5202    0.7652    0.1439 N   0  0  0  0  0  0  0  0  0  0  0  0
    2.6232    0.7173    0.2468 N   0  0  0  0  0  0  0  0  0  0  0  0
   -3.7585    0.9949   -0.3488 H   0  0  0  0  0  0  0  0  0  0  0  0
   -2.6245    2.4029    1.3591 H   0  0  0  0  0  0  0  0  0  0  0  0
   -0.1290    2.3044    1.6033 H   0  0  0  0  0  0  0  0  0  0  0  0
  1  2  2  0  0  0  0
  1  6  1  0  0  0  0
  2  3  1  0  0  0  0
  3  9  1  0  0  0  0
  3  4  2  0  0  0  0
  4 13  1  0  0  0  0
  5  4  1  0  0  0  0
  5 12  1  0  0  0  0
  6  5  2  0  0  0  0
  7  1  1  0  0  0  0
  8  2  1  0  0  0  0
  9 10  1  0  0  0  0
 11  6  1  0  0  0  0
M  RAD  2   9   2  10   3
M  END
