Coordinates from ORCA-job Ph-N2+-B3LYPG-aug-cc-pVDZ-scan-d09-49-n400
 OpenBabel09291715233D

 13 12  0  0  0  0  0  0  0  0999 V2000
   -2.3308    0.1132   -1.1166 C   0  0  0  0  0  0  0  0  0  0  0  0
   -0.8991    0.0116   -1.0262 C   0  0  0  0  0  0  0  0  0  0  0  0
   -0.5825    0.8568   -0.0522 C   0  0  0  0  0  0  0  0  0  0  0  0
   -0.9998    1.7339    0.8532 C   0  0  0  0  0  0  0  0  0  0  0  0
   -2.4269    1.7566    0.6765 C   0  0  0  0  0  0  0  0  0  0  0  0
   -3.0601    0.9645   -0.2837 C   0  0  0  0  0  0  0  0  0  0  0  0
   -2.8023   -0.5160   -1.8749 H   0  0  0  0  0  0  0  0  0  0  0  0
   -0.2832   -0.6337   -1.6486 H   0  0  0  0  0  0  0  0  0  0  0  0
    3.6136    0.6741    0.3392 N   0  0  0  0  0  0  0  0  0  0  0  0
    4.7119    0.6262    0.4413 N   0  0  0  0  0  0  0  0  0  0  0  0
   -4.1438    1.0117   -0.3849 H   0  0  0  0  0  0  0  0  0  0  0  0
   -2.9745    2.4301    1.3397 H   0  0  0  0  0  0  0  0  0  0  0  0
   -0.4563    2.3288    1.5839 H   0  0  0  0  0  0  0  0  0  0  0  0
  1  2  2  0  0  0  0
  1  6  1  0  0  0  0
  2  3  1  0  0  0  0
  3  4  2  0  0  0  0
  4 13  1  0  0  0  0
  5  4  1  0  0  0  0
  5 12  1  0  0  0  0
  6  5  2  0  0  0  0
  7  1  1  0  0  0  0
  8  2  1  0  0  0  0
  9 10  3  0  0  0  0
 11  6  1  0  0  0  0
M  RAD  1   3   2
M  END
