Coordinates from ORCA-job Ph-N2+-B3LYPG-aug-cc-pVDZ-scan-d09-49-n400
 OpenBabel09291715233D

 13 12  0  0  0  0  0  0  0  0999 V2000
   -2.2745    0.1109   -1.1112 C   0  0  0  0  0  0  0  0  0  0  0  0
   -0.8431    0.0089   -1.0212 C   0  0  0  0  0  0  0  0  0  0  0  0
   -0.5230    0.8542   -0.0467 C   0  0  0  0  0  0  0  0  0  0  0  0
   -0.9438    1.7317    0.8586 C   0  0  0  0  0  0  0  0  0  0  0  0
   -2.3705    1.7540    0.6816 C   0  0  0  0  0  0  0  0  0  0  0  0
   -3.0036    0.9621   -0.2784 C   0  0  0  0  0  0  0  0  0  0  0  0
   -2.7465   -0.5181   -1.8694 H   0  0  0  0  0  0  0  0  0  0  0  0
   -0.2281   -0.6366   -1.6440 H   0  0  0  0  0  0  0  0  0  0  0  0
    3.3042    0.6876    0.3103 N   0  0  0  0  0  0  0  0  0  0  0  0
    4.4024    0.6397    0.4126 N   0  0  0  0  0  0  0  0  0  0  0  0
   -4.0873    1.0092   -0.3796 H   0  0  0  0  0  0  0  0  0  0  0  0
   -2.9186    2.4274    1.3446 H   0  0  0  0  0  0  0  0  0  0  0  0
   -0.4012    2.3269    1.5896 H   0  0  0  0  0  0  0  0  0  0  0  0
  1  2  2  0  0  0  0
  1  6  1  0  0  0  0
  2  3  1  0  0  0  0
  3  4  2  0  0  0  0
  4 13  1  0  0  0  0
  5  4  1  0  0  0  0
  5 12  1  0  0  0  0
  6  5  2  0  0  0  0
  7  1  1  0  0  0  0
  8  2  1  0  0  0  0
  9 10  3  0  0  0  0
 11  6  1  0  0  0  0
M  RAD  1   3   2
M  END
