Coordinates from ORCA-job Ph-N2+-B3LYPG-aug-cc-pVDZ-scan-d09-49-n400
 OpenBabel09291715233D

 13 12  0  0  0  0  0  0  0  0999 V2000
   -2.1600    0.1058   -1.1006 C   0  0  0  0  0  0  0  0  0  0  0  0
   -0.7301    0.0044   -1.0102 C   0  0  0  0  0  0  0  0  0  0  0  0
   -0.4032    0.8489   -0.0356 C   0  0  0  0  0  0  0  0  0  0  0  0
   -0.8306    1.7263    0.8686 C   0  0  0  0  0  0  0  0  0  0  0  0
   -2.2559    1.7491    0.6924 C   0  0  0  0  0  0  0  0  0  0  0  0
   -2.8892    0.9571   -0.2677 C   0  0  0  0  0  0  0  0  0  0  0  0
   -2.6336   -0.5224   -1.8582 H   0  0  0  0  0  0  0  0  0  0  0  0
   -0.1149   -0.6408   -1.6326 H   0  0  0  0  0  0  0  0  0  0  0  0
    2.6760    0.7150    0.2518 N   0  0  0  0  0  0  0  0  0  0  0  0
    3.7738    0.6672    0.3541 N   0  0  0  0  0  0  0  0  0  0  0  0
   -3.9728    1.0042   -0.3689 H   0  0  0  0  0  0  0  0  0  0  0  0
   -2.8055    2.4219    1.3545 H   0  0  0  0  0  0  0  0  0  0  0  0
   -0.2878    2.3211    1.5992 H   0  0  0  0  0  0  0  0  0  0  0  0
  1  2  2  0  0  0  0
  1  6  1  0  0  0  0
  2  3  1  0  0  0  0
  3  4  2  0  0  0  0
  4 13  1  0  0  0  0
  5  4  1  0  0  0  0
  5 12  1  0  0  0  0
  6  5  2  0  0  0  0
  7  1  1  0  0  0  0
  8  2  1  0  0  0  0
  9 10  3  0  0  0  0
 11  6  1  0  0  0  0
M  RAD  1   3   2
M  END
