Coordinates from ORCA-job Ph-N2+-B3LYPG-aug-cc-pVDZ-scan-d09-49-n400
 OpenBabel09291715233D

 13 12  0  0  0  0  0  0  0  0999 V2000
   -2.2806    0.1112   -1.1118 C   0  0  0  0  0  0  0  0  0  0  0  0
   -0.8492    0.0092   -1.0218 C   0  0  0  0  0  0  0  0  0  0  0  0
   -0.5291    0.8544   -0.0473 C   0  0  0  0  0  0  0  0  0  0  0  0
   -0.9499    1.7319    0.8580 C   0  0  0  0  0  0  0  0  0  0  0  0
   -2.3766    1.7542    0.6811 C   0  0  0  0  0  0  0  0  0  0  0  0
   -3.0098    0.9623   -0.2790 C   0  0  0  0  0  0  0  0  0  0  0  0
   -2.7526   -0.5179   -1.8700 H   0  0  0  0  0  0  0  0  0  0  0  0
   -0.2342   -0.6364   -1.6446 H   0  0  0  0  0  0  0  0  0  0  0  0
    3.3379    0.6861    0.3135 N   0  0  0  0  0  0  0  0  0  0  0  0
    4.4361    0.6383    0.4157 N   0  0  0  0  0  0  0  0  0  0  0  0
   -4.0935    1.0095   -0.3802 H   0  0  0  0  0  0  0  0  0  0  0  0
   -2.9247    2.4277    1.3440 H   0  0  0  0  0  0  0  0  0  0  0  0
   -0.4074    2.3272    1.5890 H   0  0  0  0  0  0  0  0  0  0  0  0
  1  2  2  0  0  0  0
  1  6  1  0  0  0  0
  2  3  1  0  0  0  0
  3  4  2  0  0  0  0
  4 13  1  0  0  0  0
  5  4  1  0  0  0  0
  5 12  1  0  0  0  0
  6  5  2  0  0  0  0
  7  1  1  0  0  0  0
  8  2  1  0  0  0  0
  9 10  3  0  0  0  0
 11  6  1  0  0  0  0
M  RAD  1   3   2
M  END
