Coordinates from ORCA-job Ph-N2+-B3LYPG-aug-cc-pVDZ-scan-d09-49-n400
 OpenBabel09291715233D

 13 12  0  0  0  0  0  0  0  0999 V2000
   -2.2653    0.1105   -1.1103 C   0  0  0  0  0  0  0  0  0  0  0  0
   -0.8340    0.0085   -1.0203 C   0  0  0  0  0  0  0  0  0  0  0  0
   -0.5136    0.8538   -0.0458 C   0  0  0  0  0  0  0  0  0  0  0  0
   -0.9346    1.7313    0.8594 C   0  0  0  0  0  0  0  0  0  0  0  0
   -2.3613    1.7536    0.6825 C   0  0  0  0  0  0  0  0  0  0  0  0
   -2.9945    0.9617   -0.2775 C   0  0  0  0  0  0  0  0  0  0  0  0
   -2.7374   -0.5185   -1.8685 H   0  0  0  0  0  0  0  0  0  0  0  0
   -0.2189   -0.6370   -1.6431 H   0  0  0  0  0  0  0  0  0  0  0  0
    3.2537    0.6898    0.3056 N   0  0  0  0  0  0  0  0  0  0  0  0
    4.3518    0.6419    0.4079 N   0  0  0  0  0  0  0  0  0  0  0  0
   -4.0781    1.0088   -0.3788 H   0  0  0  0  0  0  0  0  0  0  0  0
   -2.9094    2.4270    1.3454 H   0  0  0  0  0  0  0  0  0  0  0  0
   -0.3920    2.3264    1.5904 H   0  0  0  0  0  0  0  0  0  0  0  0
  1  2  2  0  0  0  0
  1  6  1  0  0  0  0
  2  3  1  0  0  0  0
  3  4  2  0  0  0  0
  4 13  1  0  0  0  0
  5  4  1  0  0  0  0
  5 12  1  0  0  0  0
  6  5  2  0  0  0  0
  7  1  1  0  0  0  0
  8  2  1  0  0  0  0
  9 10  3  0  0  0  0
 11  6  1  0  0  0  0
M  RAD  1   3   2
M  END
