Coordinates from ORCA-job Ph-N2+-B3LYPG-aug-cc-pVDZ-scan-d09-49-n400
 OpenBabel09291715233D

 13 12  0  0  0  0  0  0  0  0999 V2000
   -2.1353    0.1045   -1.0986 C   0  0  0  0  0  0  0  0  0  0  0  0
   -0.7059    0.0040   -1.0072 C   0  0  0  0  0  0  0  0  0  0  0  0
   -0.3788    0.8479   -0.0333 C   0  0  0  0  0  0  0  0  0  0  0  0
   -0.8063    1.7246    0.8702 C   0  0  0  0  0  0  0  0  0  0  0  0
   -2.2312    1.7483    0.6950 C   0  0  0  0  0  0  0  0  0  0  0  0
   -2.8647    0.9560   -0.2654 C   0  0  0  0  0  0  0  0  0  0  0  0
   -2.6095   -0.5235   -1.8559 H   0  0  0  0  0  0  0  0  0  0  0  0
   -0.0896   -0.6406   -1.6289 H   0  0  0  0  0  0  0  0  0  0  0  0
    2.5408    0.7208    0.2392 N   0  0  0  0  0  0  0  0  0  0  0  0
    3.6386    0.6731    0.3415 N   0  0  0  0  0  0  0  0  0  0  0  0
   -3.9483    1.0032   -0.3666 H   0  0  0  0  0  0  0  0  0  0  0  0
   -2.7813    2.4208    1.3567 H   0  0  0  0  0  0  0  0  0  0  0  0
   -0.2623    2.3187    1.6001 H   0  0  0  0  0  0  0  0  0  0  0  0
  1  2  2  0  0  0  0
  1  6  1  0  0  0  0
  2  3  1  0  0  0  0
  3  4  2  0  0  0  0
  4 13  1  0  0  0  0
  5  4  1  0  0  0  0
  5 12  1  0  0  0  0
  6  5  2  0  0  0  0
  7  1  1  0  0  0  0
  8  2  1  0  0  0  0
  9 10  3  0  0  0  0
 11  6  1  0  0  0  0
M  RAD  1   3   2
M  END
