Coordinates from ORCA-job Ph-N2+-B3LYPG-aug-cc-pVDZ-scan-d09-49-n400
 OpenBabel09291715233D

 13 12  0  0  0  0  0  0  0  0999 V2000
   -2.3021    0.1121   -1.1137 C   0  0  0  0  0  0  0  0  0  0  0  0
   -0.8706    0.0101   -1.0238 C   0  0  0  0  0  0  0  0  0  0  0  0
   -0.5508    0.8554   -0.0493 C   0  0  0  0  0  0  0  0  0  0  0  0
   -0.9713    1.7329    0.8561 C   0  0  0  0  0  0  0  0  0  0  0  0
   -2.3981    1.7552    0.6791 C   0  0  0  0  0  0  0  0  0  0  0  0
   -3.0312    0.9633   -0.2810 C   0  0  0  0  0  0  0  0  0  0  0  0
   -2.7739   -0.5170   -1.8720 H   0  0  0  0  0  0  0  0  0  0  0  0
   -0.2557   -0.6356   -1.6468 H   0  0  0  0  0  0  0  0  0  0  0  0
    3.4558    0.6809    0.3245 N   0  0  0  0  0  0  0  0  0  0  0  0
    4.5541    0.6331    0.4267 N   0  0  0  0  0  0  0  0  0  0  0  0
   -4.1149    1.0104   -0.3822 H   0  0  0  0  0  0  0  0  0  0  0  0
   -2.9461    2.4286    1.3421 H   0  0  0  0  0  0  0  0  0  0  0  0
   -0.4289    2.3282    1.5872 H   0  0  0  0  0  0  0  0  0  0  0  0
  1  2  2  0  0  0  0
  1  6  1  0  0  0  0
  2  3  1  0  0  0  0
  3  4  2  0  0  0  0
  4 13  1  0  0  0  0
  5  4  1  0  0  0  0
  5 12  1  0  0  0  0
  6  5  2  0  0  0  0
  7  1  1  0  0  0  0
  8  2  1  0  0  0  0
  9 10  3  0  0  0  0
 11  6  1  0  0  0  0
M  RAD  1   3   2
M  END
