Coordinates from ORCA-job Ph-N2+-B3LYPG-aug-cc-pVDZ-scan-d09-49-n400
 OpenBabel09291715233D

 13 13  0  0  0  0  0  0  0  0999 V2000
   -1.9357    0.0909   -1.0853 C   0  0  0  0  0  0  0  0  0  0  0  0
   -0.5518    0.0149   -0.9735 C   0  0  0  0  0  0  0  0  0  0  0  0
    0.0413    0.8296    0.0059 C   0  0  0  0  0  0  0  0  0  0  0  0
   -0.6502    1.7001    0.8653 C   0  0  0  0  0  0  0  0  0  0  0  0
   -2.0322    1.7445    0.7190 C   0  0  0  0  0  0  0  0  0  0  0  0
   -2.6670    0.9474   -0.2469 C   0  0  0  0  0  0  0  0  0  0  0  0
   -2.4468   -0.5194   -1.8285 H   0  0  0  0  0  0  0  0  0  0  0  0
    0.0466   -0.6378   -1.6066 H   0  0  0  0  0  0  0  0  0  0  0  0
    1.4751    0.7672    0.1397 N   0  0  0  0  0  0  0  0  0  0  0  0
    2.5807    0.7191    0.2429 N   0  0  0  0  0  0  0  0  0  0  0  0
   -3.7513    0.9946   -0.3482 H   0  0  0  0  0  0  0  0  0  0  0  0
   -2.6173    2.4025    1.3598 H   0  0  0  0  0  0  0  0  0  0  0  0
   -0.1251    2.3040    1.6034 H   0  0  0  0  0  0  0  0  0  0  0  0
  1  2  2  0  0  0  0
  1  6  1  0  0  0  0
  2  3  1  0  0  0  0
  3  9  1  0  0  0  0
  3  4  2  0  0  0  0
  4 13  1  0  0  0  0
  5  4  1  0  0  0  0
  5 12  1  0  0  0  0
  6  5  2  0  0  0  0
  7  1  1  0  0  0  0
  8  2  1  0  0  0  0
  9 10  1  0  0  0  0
 11  6  1  0  0  0  0
M  RAD  2   9   2  10   3
M  END
