Coordinates from ORCA-job Ph-N2+-B3LYPG-aug-cc-pVDZ-scan-d09-49-n400
 OpenBabel09291715233D

 13 13  0  0  0  0  0  0  0  0999 V2000
   -1.9459    0.0917   -1.0859 C   0  0  0  0  0  0  0  0  0  0  0  0
   -0.5584    0.0138   -0.9756 C   0  0  0  0  0  0  0  0  0  0  0  0
    0.0095    0.8310    0.0029 C   0  0  0  0  0  0  0  0  0  0  0  0
   -0.6569    1.7018    0.8662 C   0  0  0  0  0  0  0  0  0  0  0  0
   -2.0423    1.7446    0.7176 C   0  0  0  0  0  0  0  0  0  0  0  0
   -2.6765    0.9478   -0.2478 C   0  0  0  0  0  0  0  0  0  0  0  0
   -2.4560   -0.5191   -1.8294 H   0  0  0  0  0  0  0  0  0  0  0  0
    0.0417   -0.6380   -1.6075 H   0  0  0  0  0  0  0  0  0  0  0  0
    1.5330    0.7647    0.1451 N   0  0  0  0  0  0  0  0  0  0  0  0
    2.6353    0.7167    0.2480 N   0  0  0  0  0  0  0  0  0  0  0  0
   -3.7607    0.9950   -0.3490 H   0  0  0  0  0  0  0  0  0  0  0  0
   -2.6265    2.4030    1.3590 H   0  0  0  0  0  0  0  0  0  0  0  0
   -0.1300    2.3046    1.6033 H   0  0  0  0  0  0  0  0  0  0  0  0
  1  2  2  0  0  0  0
  1  6  1  0  0  0  0
  2  3  1  0  0  0  0
  3  9  1  0  0  0  0
  3  4  2  0  0  0  0
  4 13  1  0  0  0  0
  5  4  1  0  0  0  0
  5 12  1  0  0  0  0
  6  5  2  0  0  0  0
  7  1  1  0  0  0  0
  8  2  1  0  0  0  0
  9 10  1  0  0  0  0
 11  6  1  0  0  0  0
M  RAD  2   9   2  10   3
M  END
