Coordinates from ORCA-job Ph-N2+-B3LYPG-aug-cc-pVDZ-scan-d09-49-n400
 OpenBabel09291715233D

 13 12  0  0  0  0  0  0  0  0999 V2000
   -2.0582    0.1008   -1.0917 C   0  0  0  0  0  0  0  0  0  0  0  0
   -0.6353    0.0031   -0.9982 C   0  0  0  0  0  0  0  0  0  0  0  0
   -0.2732    0.8433   -0.0235 C   0  0  0  0  0  0  0  0  0  0  0  0
   -0.7355    1.7193    0.8743 C   0  0  0  0  0  0  0  0  0  0  0  0
   -2.1542    1.7452    0.7026 C   0  0  0  0  0  0  0  0  0  0  0  0
   -2.7878    0.9527   -0.2582 C   0  0  0  0  0  0  0  0  0  0  0  0
   -2.5391   -0.5241   -1.8466 H   0  0  0  0  0  0  0  0  0  0  0  0
   -0.0245   -0.6430   -1.6223 H   0  0  0  0  0  0  0  0  0  0  0  0
    2.1279    0.7388    0.2006 N   0  0  0  0  0  0  0  0  0  0  0  0
    3.2253    0.6910    0.3030 N   0  0  0  0  0  0  0  0  0  0  0  0
   -3.8713    0.9998   -0.3594 H   0  0  0  0  0  0  0  0  0  0  0  0
   -2.7106    2.4153    1.3606 H   0  0  0  0  0  0  0  0  0  0  0  0
   -0.1971    2.3154    1.6057 H   0  0  0  0  0  0  0  0  0  0  0  0
  1  2  2  0  0  0  0
  1  6  1  0  0  0  0
  2  3  1  0  0  0  0
  3  4  2  0  0  0  0
  4 13  1  0  0  0  0
  5  4  1  0  0  0  0
  5 12  1  0  0  0  0
  6  5  2  0  0  0  0
  7  1  1  0  0  0  0
  8  2  1  0  0  0  0
  9 10  3  0  0  0  0
 11  6  1  0  0  0  0
M  RAD  1   3   2
M  END
