Coordinates from ORCA-job Ph-N2+-B3LYPG-aug-cc-pVDZ-scan-d09-49-n400
 OpenBabel09291715233D

 13 12  0  0  0  0  0  0  0  0999 V2000
   -2.0700    0.1014   -1.0928 C   0  0  0  0  0  0  0  0  0  0  0  0
   -0.6456    0.0031   -0.9997 C   0  0  0  0  0  0  0  0  0  0  0  0
   -0.2918    0.8441   -0.0252 C   0  0  0  0  0  0  0  0  0  0  0  0
   -0.7458    1.7202    0.8739 C   0  0  0  0  0  0  0  0  0  0  0  0
   -2.1659    1.7457    0.7014 C   0  0  0  0  0  0  0  0  0  0  0  0
   -2.7995    0.9532   -0.2593 C   0  0  0  0  0  0  0  0  0  0  0  0
   -2.5491   -0.5243   -1.8483 H   0  0  0  0  0  0  0  0  0  0  0  0
   -0.0325   -0.6422   -1.6227 H   0  0  0  0  0  0  0  0  0  0  0  0
    2.1891    0.7361    0.2063 N   0  0  0  0  0  0  0  0  0  0  0  0
    3.2865    0.6884    0.3087 N   0  0  0  0  0  0  0  0  0  0  0  0
   -3.8831    1.0003   -0.3605 H   0  0  0  0  0  0  0  0  0  0  0  0
   -2.7207    2.4164    1.3604 H   0  0  0  0  0  0  0  0  0  0  0  0
   -0.2051    2.3154    1.6045 H   0  0  0  0  0  0  0  0  0  0  0  0
  1  2  2  0  0  0  0
  1  6  1  0  0  0  0
  2  3  1  0  0  0  0
  3  4  2  0  0  0  0
  4 13  1  0  0  0  0
  5  4  1  0  0  0  0
  5 12  1  0  0  0  0
  6  5  2  0  0  0  0
  7  1  1  0  0  0  0
  8  2  1  0  0  0  0
  9 10  3  0  0  0  0
 11  6  1  0  0  0  0
M  RAD  1   3   2
M  END
