Coordinates from ORCA-job Ph-N2+-B3LYPG-aug-cc-pVDZ-scan-d09-49-n400
 OpenBabel09291715233D

 13 12  0  0  0  0  0  0  0  0999 V2000
   -2.2164    0.1083   -1.1058 C   0  0  0  0  0  0  0  0  0  0  0  0
   -0.7855    0.0065   -1.0157 C   0  0  0  0  0  0  0  0  0  0  0  0
   -0.4634    0.8516   -0.0412 C   0  0  0  0  0  0  0  0  0  0  0  0
   -0.8860    1.7290    0.8638 C   0  0  0  0  0  0  0  0  0  0  0  0
   -2.3123    1.7515    0.6871 C   0  0  0  0  0  0  0  0  0  0  0  0
   -2.9455    0.9596   -0.2730 C   0  0  0  0  0  0  0  0  0  0  0  0
   -2.6889   -0.5205   -1.8638 H   0  0  0  0  0  0  0  0  0  0  0  0
   -0.1701   -0.6388   -1.6382 H   0  0  0  0  0  0  0  0  0  0  0  0
    2.9848    0.7015    0.2806 N   0  0  0  0  0  0  0  0  0  0  0  0
    4.0828    0.6537    0.3828 N   0  0  0  0  0  0  0  0  0  0  0  0
   -4.0292    1.0067   -0.3742 H   0  0  0  0  0  0  0  0  0  0  0  0
   -2.8608    2.4247    1.3498 H   0  0  0  0  0  0  0  0  0  0  0  0
   -0.3431    2.3239    1.5945 H   0  0  0  0  0  0  0  0  0  0  0  0
  1  2  2  0  0  0  0
  1  6  1  0  0  0  0
  2  3  1  0  0  0  0
  3  4  2  0  0  0  0
  4 13  1  0  0  0  0
  5  4  1  0  0  0  0
  5 12  1  0  0  0  0
  6  5  2  0  0  0  0
  7  1  1  0  0  0  0
  8  2  1  0  0  0  0
  9 10  3  0  0  0  0
 11  6  1  0  0  0  0
M  RAD  1   3   2
M  END
