Coordinates from ORCA-job Ph-N2+-B3LYPG-aug-cc-pVDZ-scan-d09-49-n400
 OpenBabel09291715233D

 13 12  0  0  0  0  0  0  0  0999 V2000
   -2.2715    0.1108   -1.1109 C   0  0  0  0  0  0  0  0  0  0  0  0
   -0.8401    0.0088   -1.0209 C   0  0  0  0  0  0  0  0  0  0  0  0
   -0.5198    0.8540   -0.0464 C   0  0  0  0  0  0  0  0  0  0  0  0
   -0.9407    1.7315    0.8589 C   0  0  0  0  0  0  0  0  0  0  0  0
   -2.3674    1.7539    0.6819 C   0  0  0  0  0  0  0  0  0  0  0  0
   -3.0006    0.9619   -0.2781 C   0  0  0  0  0  0  0  0  0  0  0  0
   -2.7435   -0.5182   -1.8691 H   0  0  0  0  0  0  0  0  0  0  0  0
   -0.2250   -0.6368   -1.6437 H   0  0  0  0  0  0  0  0  0  0  0  0
    3.2873    0.6883    0.3088 N   0  0  0  0  0  0  0  0  0  0  0  0
    4.3855    0.6405    0.4110 N   0  0  0  0  0  0  0  0  0  0  0  0
   -4.0843    1.0091   -0.3793 H   0  0  0  0  0  0  0  0  0  0  0  0
   -2.9155    2.4272    1.3448 H   0  0  0  0  0  0  0  0  0  0  0  0
   -0.3981    2.3267    1.5898 H   0  0  0  0  0  0  0  0  0  0  0  0
  1  2  2  0  0  0  0
  1  6  1  0  0  0  0
  2  3  1  0  0  0  0
  3  4  2  0  0  0  0
  4 13  1  0  0  0  0
  5  4  1  0  0  0  0
  5 12  1  0  0  0  0
  6  5  2  0  0  0  0
  7  1  1  0  0  0  0
  8  2  1  0  0  0  0
  9 10  3  0  0  0  0
 11  6  1  0  0  0  0
M  RAD  1   3   2
M  END
