Coordinates from ORCA-job Ph-N2+-B3LYPG-aug-cc-pVDZ-scan-d09-49-n400
 OpenBabel09291715233D

 13 12  0  0  0  0  0  0  0  0999 V2000
   -2.2389    0.1092   -1.1080 C   0  0  0  0  0  0  0  0  0  0  0  0
   -0.8076    0.0077   -1.0175 C   0  0  0  0  0  0  0  0  0  0  0  0
   -0.4894    0.8527   -0.0436 C   0  0  0  0  0  0  0  0  0  0  0  0
   -0.9082    1.7297    0.8615 C   0  0  0  0  0  0  0  0  0  0  0  0
   -2.3349    1.7526    0.6851 C   0  0  0  0  0  0  0  0  0  0  0  0
   -2.9682    0.9605   -0.2751 C   0  0  0  0  0  0  0  0  0  0  0  0
   -2.7110   -0.5198   -1.8662 H   0  0  0  0  0  0  0  0  0  0  0  0
   -0.1913   -0.6373   -1.6395 H   0  0  0  0  0  0  0  0  0  0  0  0
    3.1084    0.6961    0.2921 N   0  0  0  0  0  0  0  0  0  0  0  0
    4.2065    0.6483    0.3944 N   0  0  0  0  0  0  0  0  0  0  0  0
   -4.0519    1.0077   -0.3763 H   0  0  0  0  0  0  0  0  0  0  0  0
   -2.8830    2.4259    1.3480 H   0  0  0  0  0  0  0  0  0  0  0  0
   -0.3642    2.3242    1.5919 H   0  0  0  0  0  0  0  0  0  0  0  0
  1  2  2  0  0  0  0
  1  6  1  0  0  0  0
  2  3  1  0  0  0  0
  3  4  2  0  0  0  0
  4 13  1  0  0  0  0
  5  4  1  0  0  0  0
  5 12  1  0  0  0  0
  6  5  2  0  0  0  0
  7  1  1  0  0  0  0
  8  2  1  0  0  0  0
  9 10  3  0  0  0  0
 11  6  1  0  0  0  0
M  RAD  1   3   2
M  END
