Coordinates from ORCA-job Ph-N2+-B3LYPG-aug-cc-pVDZ-scan-d09-49-n400
 OpenBabel09291715233D

 13 12  0  0  0  0  0  0  0  0999 V2000
   -2.1782    0.1066   -1.1023 C   0  0  0  0  0  0  0  0  0  0  0  0
   -0.7478    0.0050   -1.0120 C   0  0  0  0  0  0  0  0  0  0  0  0
   -0.4232    0.8498   -0.0374 C   0  0  0  0  0  0  0  0  0  0  0  0
   -0.8484    1.7272    0.8671 C   0  0  0  0  0  0  0  0  0  0  0  0
   -2.2742    1.7499    0.6907 C   0  0  0  0  0  0  0  0  0  0  0  0
   -2.9074    0.9579   -0.2694 C   0  0  0  0  0  0  0  0  0  0  0  0
   -2.6514   -0.5218   -1.8600 H   0  0  0  0  0  0  0  0  0  0  0  0
   -0.1325   -0.6402   -1.6345 H   0  0  0  0  0  0  0  0  0  0  0  0
    2.7757    0.7106    0.2611 N   0  0  0  0  0  0  0  0  0  0  0  0
    3.8736    0.6628    0.3634 N   0  0  0  0  0  0  0  0  0  0  0  0
   -3.9910    1.0050   -0.3706 H   0  0  0  0  0  0  0  0  0  0  0  0
   -2.8233    2.4228    1.3530 H   0  0  0  0  0  0  0  0  0  0  0  0
   -0.3054    2.3220    1.5977 H   0  0  0  0  0  0  0  0  0  0  0  0
  1  2  2  0  0  0  0
  1  6  1  0  0  0  0
  2  3  1  0  0  0  0
  3  4  2  0  0  0  0
  4 13  1  0  0  0  0
  5  4  1  0  0  0  0
  5 12  1  0  0  0  0
  6  5  2  0  0  0  0
  7  1  1  0  0  0  0
  8  2  1  0  0  0  0
  9 10  3  0  0  0  0
 11  6  1  0  0  0  0
M  RAD  1   3   2
M  END
