Coordinates from ORCA-job Ph-N2+-B3LYPG-aug-cc-pVDZ-scan-d09-49-n400
 OpenBabel09291715233D

 13 12  0  0  0  0  0  0  0  0999 V2000
   -1.9941    0.0965   -1.0874 C   0  0  0  0  0  0  0  0  0  0  0  0
   -0.5883    0.0074   -0.9870 C   0  0  0  0  0  0  0  0  0  0  0  0
   -0.1318    0.8371   -0.0103 C   0  0  0  0  0  0  0  0  0  0  0  0
   -0.6877    1.7109    0.8719 C   0  0  0  0  0  0  0  0  0  0  0  0
   -2.0902    1.7439    0.7102 C   0  0  0  0  0  0  0  0  0  0  0  0
   -2.7237    0.9499   -0.2522 C   0  0  0  0  0  0  0  0  0  0  0  0
   -2.4908   -0.5208   -1.8362 H   0  0  0  0  0  0  0  0  0  0  0  0
    0.0180   -0.6407   -1.6138 H   0  0  0  0  0  0  0  0  0  0  0  0
    1.7906    0.7535    0.1691 N   0  0  0  0  0  0  0  0  0  0  0  0
    2.8875    0.7058    0.2715 N   0  0  0  0  0  0  0  0  0  0  0  0
   -3.8073    0.9970   -0.3534 H   0  0  0  0  0  0  0  0  0  0  0  0
   -2.6616    2.4078    1.3593 H   0  0  0  0  0  0  0  0  0  0  0  0
   -0.1541    2.3094    1.6052 H   0  0  0  0  0  0  0  0  0  0  0  0
  1  2  2  0  0  0  0
  1  6  1  0  0  0  0
  2  3  1  0  0  0  0
  3  4  2  0  0  0  0
  4 13  1  0  0  0  0
  5  4  1  0  0  0  0
  5 12  1  0  0  0  0
  6  5  2  0  0  0  0
  7  1  1  0  0  0  0
  8  2  1  0  0  0  0
  9 10  3  0  0  0  0
 11  6  1  0  0  0  0
M  RAD  1   3   2
M  END
