Coordinates from ORCA-job Ph-N2+-B3LYPG-aug-cc-pVDZ-scan-d09-49-n400
 OpenBabel09291715233D

 13 12  0  0  0  0  0  0  0  0999 V2000
   -1.9992    0.0970   -1.0876 C   0  0  0  0  0  0  0  0  0  0  0  0
   -0.5918    0.0068   -0.9880 C   0  0  0  0  0  0  0  0  0  0  0  0
   -0.1449    0.8377   -0.0115 C   0  0  0  0  0  0  0  0  0  0  0  0
   -0.6912    1.7118    0.8723 C   0  0  0  0  0  0  0  0  0  0  0  0
   -2.0953    1.7439    0.7094 C   0  0  0  0  0  0  0  0  0  0  0  0
   -2.7289    0.9501   -0.2527 C   0  0  0  0  0  0  0  0  0  0  0  0
   -2.4942   -0.5212   -1.8371 H   0  0  0  0  0  0  0  0  0  0  0  0
    0.0150   -0.6410   -1.6146 H   0  0  0  0  0  0  0  0  0  0  0  0
    1.8174    0.7523    0.1716 N   0  0  0  0  0  0  0  0  0  0  0  0
    2.9143    0.7046    0.2740 N   0  0  0  0  0  0  0  0  0  0  0  0
   -3.8125    0.9973   -0.3539 H   0  0  0  0  0  0  0  0  0  0  0  0
   -2.6651    2.4084    1.3596 H   0  0  0  0  0  0  0  0  0  0  0  0
   -0.1572    2.3100    1.6054 H   0  0  0  0  0  0  0  0  0  0  0  0
  1  2  2  0  0  0  0
  1  6  1  0  0  0  0
  2  3  1  0  0  0  0
  3  4  2  0  0  0  0
  4 13  1  0  0  0  0
  5  4  1  0  0  0  0
  5 12  1  0  0  0  0
  6  5  2  0  0  0  0
  7  1  1  0  0  0  0
  8  2  1  0  0  0  0
  9 10  3  0  0  0  0
 11  6  1  0  0  0  0
M  RAD  1   3   2
M  END
