Coordinates from ORCA-job Ph-N2+-B3LYPG-aug-cc-pVDZ-scan-d09-49-n400
 OpenBabel09291715233D

 13 12  0  0  0  0  0  0  0  0999 V2000
   -2.3205    0.1129   -1.1155 C   0  0  0  0  0  0  0  0  0  0  0  0
   -0.8889    0.0109   -1.0255 C   0  0  0  0  0  0  0  0  0  0  0  0
   -0.5694    0.8562   -0.0510 C   0  0  0  0  0  0  0  0  0  0  0  0
   -0.9896    1.7337    0.8544 C   0  0  0  0  0  0  0  0  0  0  0  0
   -2.4165    1.7560    0.6773 C   0  0  0  0  0  0  0  0  0  0  0  0
   -3.0496    0.9641   -0.2827 C   0  0  0  0  0  0  0  0  0  0  0  0
   -2.7922   -0.5162   -1.8738 H   0  0  0  0  0  0  0  0  0  0  0  0
   -0.2741   -0.6348   -1.6485 H   0  0  0  0  0  0  0  0  0  0  0  0
    3.5570    0.6765    0.3339 N   0  0  0  0  0  0  0  0  0  0  0  0
    4.6552    0.6287    0.4361 N   0  0  0  0  0  0  0  0  0  0  0  0
   -4.1333    1.0112   -0.3839 H   0  0  0  0  0  0  0  0  0  0  0  0
   -2.9644    2.4295    1.3404 H   0  0  0  0  0  0  0  0  0  0  0  0
   -0.4473    2.3291    1.5856 H   0  0  0  0  0  0  0  0  0  0  0  0
  1  2  2  0  0  0  0
  1  6  1  0  0  0  0
  2  3  1  0  0  0  0
  3  4  2  0  0  0  0
  4 13  1  0  0  0  0
  5  4  1  0  0  0  0
  5 12  1  0  0  0  0
  6  5  2  0  0  0  0
  7  1  1  0  0  0  0
  8  2  1  0  0  0  0
  9 10  3  0  0  0  0
 11  6  1  0  0  0  0
M  RAD  1   3   2
M  END
