Coordinates from ORCA-job Ph-N2+-B3LYPG-aug-cc-pVDZ-scan-d09-49-n400
 OpenBabel09291715233D

 13 12  0  0  0  0  0  0  0  0999 V2000
   -2.3860    0.1157   -1.1217 C   0  0  0  0  0  0  0  0  0  0  0  0
   -0.9542    0.0139   -1.0313 C   0  0  0  0  0  0  0  0  0  0  0  0
   -0.6379    0.8592   -0.0573 C   0  0  0  0  0  0  0  0  0  0  0  0
   -1.0549    1.7364    0.8481 C   0  0  0  0  0  0  0  0  0  0  0  0
   -2.4821    1.7590    0.6714 C   0  0  0  0  0  0  0  0  0  0  0  0
   -3.1153    0.9669   -0.2888 C   0  0  0  0  0  0  0  0  0  0  0  0
   -2.8573   -0.5137   -1.8802 H   0  0  0  0  0  0  0  0  0  0  0  0
   -0.3385   -0.6315   -1.6539 H   0  0  0  0  0  0  0  0  0  0  0  0
    3.9172    0.6608    0.3675 N   0  0  0  0  0  0  0  0  0  0  0  0
    5.0156    0.6129    0.4696 N   0  0  0  0  0  0  0  0  0  0  0  0
   -4.1990    1.0140   -0.3901 H   0  0  0  0  0  0  0  0  0  0  0  0
   -3.0297    2.4326    1.3346 H   0  0  0  0  0  0  0  0  0  0  0  0
   -0.5118    2.3314    1.5790 H   0  0  0  0  0  0  0  0  0  0  0  0
  1  2  2  0  0  0  0
  1  6  1  0  0  0  0
  2  3  1  0  0  0  0
  3  4  2  0  0  0  0
  4 13  1  0  0  0  0
  5  4  1  0  0  0  0
  5 12  1  0  0  0  0
  6  5  2  0  0  0  0
  7  1  1  0  0  0  0
  8  2  1  0  0  0  0
  9 10  3  0  0  0  0
 11  6  1  0  0  0  0
M  RAD  1   3   2
M  END
