Coordinates from ORCA-job Ph-N2+-B3LYPG-aug-cc-pVDZ-scan-d09-49-n400
 OpenBabel09291715233D

 13 12  0  0  0  0  0  0  0  0999 V2000
   -2.2225    0.1086   -1.1064 C   0  0  0  0  0  0  0  0  0  0  0  0
   -0.7915    0.0068   -1.0162 C   0  0  0  0  0  0  0  0  0  0  0  0
   -0.4697    0.8518   -0.0418 C   0  0  0  0  0  0  0  0  0  0  0  0
   -0.8921    1.7293    0.8632 C   0  0  0  0  0  0  0  0  0  0  0  0
   -2.3184    1.7518    0.6865 C   0  0  0  0  0  0  0  0  0  0  0  0
   -2.9516    0.9598   -0.2735 C   0  0  0  0  0  0  0  0  0  0  0  0
   -2.6949   -0.5202   -1.8644 H   0  0  0  0  0  0  0  0  0  0  0  0
   -0.1762   -0.6386   -1.6389 H   0  0  0  0  0  0  0  0  0  0  0  0
    3.0183    0.7000    0.2837 N   0  0  0  0  0  0  0  0  0  0  0  0
    4.1164    0.6522    0.3860 N   0  0  0  0  0  0  0  0  0  0  0  0
   -4.0353    1.0070   -0.3747 H   0  0  0  0  0  0  0  0  0  0  0  0
   -2.8669    2.4250    1.3492 H   0  0  0  0  0  0  0  0  0  0  0  0
   -0.3492    2.3242    1.5940 H   0  0  0  0  0  0  0  0  0  0  0  0
  1  2  2  0  0  0  0
  1  6  1  0  0  0  0
  2  3  1  0  0  0  0
  3  4  2  0  0  0  0
  4 13  1  0  0  0  0
  5  4  1  0  0  0  0
  5 12  1  0  0  0  0
  6  5  2  0  0  0  0
  7  1  1  0  0  0  0
  8  2  1  0  0  0  0
  9 10  3  0  0  0  0
 11  6  1  0  0  0  0
M  RAD  1   3   2
M  END
