Coordinates from ORCA-job Ph-N2+-B3LYPG-aug-cc-pVDZ-scan-d09-49-n400
 OpenBabel09291715233D

 13 12  0  0  0  0  0  0  0  0999 V2000
   -2.3573    0.1146   -1.1189 C   0  0  0  0  0  0  0  0  0  0  0  0
   -0.9256    0.0124   -1.0289 C   0  0  0  0  0  0  0  0  0  0  0  0
   -0.6063    0.8578   -0.0544 C   0  0  0  0  0  0  0  0  0  0  0  0
   -1.0264    1.7354    0.8510 C   0  0  0  0  0  0  0  0  0  0  0  0
   -2.4533    1.7576    0.6739 C   0  0  0  0  0  0  0  0  0  0  0  0
   -3.0864    0.9657   -0.2861 C   0  0  0  0  0  0  0  0  0  0  0  0
   -2.8289   -0.5147   -1.8772 H   0  0  0  0  0  0  0  0  0  0  0  0
   -0.3110   -0.6334   -1.6521 H   0  0  0  0  0  0  0  0  0  0  0  0
    3.7593    0.6677    0.3528 N   0  0  0  0  0  0  0  0  0  0  0  0
    4.8577    0.6198    0.4549 N   0  0  0  0  0  0  0  0  0  0  0  0
   -4.1701    1.0128   -0.3874 H   0  0  0  0  0  0  0  0  0  0  0  0
   -3.0011    2.4311    1.3370 H   0  0  0  0  0  0  0  0  0  0  0  0
   -0.4843    2.3309    1.5823 H   0  0  0  0  0  0  0  0  0  0  0  0
  1  2  2  0  0  0  0
  1  6  1  0  0  0  0
  2  3  1  0  0  0  0
  3  4  2  0  0  0  0
  4 13  1  0  0  0  0
  5  4  1  0  0  0  0
  5 12  1  0  0  0  0
  6  5  2  0  0  0  0
  7  1  1  0  0  0  0
  8  2  1  0  0  0  0
  9 10  3  0  0  0  0
 11  6  1  0  0  0  0
M  RAD  1   3   2
M  END
