Coordinates from ORCA-job Ph-N2+-B3LYPG-aug-cc-pVDZ-scan-d09-49-n400
 OpenBabel09291715233D

 13 12  0  0  0  0  0  0  0  0999 V2000
   -2.0084    0.0978   -1.0881 C   0  0  0  0  0  0  0  0  0  0  0  0
   -0.5981    0.0060   -0.9899 C   0  0  0  0  0  0  0  0  0  0  0  0
   -0.1671    0.8387   -0.0136 C   0  0  0  0  0  0  0  0  0  0  0  0
   -0.6977    1.7132    0.8729 C   0  0  0  0  0  0  0  0  0  0  0  0
   -2.1044    1.7439    0.7082 C   0  0  0  0  0  0  0  0  0  0  0  0
   -2.7380    0.9505   -0.2536 C   0  0  0  0  0  0  0  0  0  0  0  0
   -2.5004   -0.5218   -1.8387 H   0  0  0  0  0  0  0  0  0  0  0  0
    0.0094   -0.6415   -1.6160 H   0  0  0  0  0  0  0  0  0  0  0  0
    1.8650    0.7502    0.1761 N   0  0  0  0  0  0  0  0  0  0  0  0
    2.9619    0.7025    0.2784 N   0  0  0  0  0  0  0  0  0  0  0  0
   -3.8216    0.9977   -0.3547 H   0  0  0  0  0  0  0  0  0  0  0  0
   -2.6715    2.4096    1.3599 H   0  0  0  0  0  0  0  0  0  0  0  0
   -0.1629    2.3110    1.6057 H   0  0  0  0  0  0  0  0  0  0  0  0
  1  2  2  0  0  0  0
  1  6  1  0  0  0  0
  2  3  1  0  0  0  0
  3  4  2  0  0  0  0
  4 13  1  0  0  0  0
  5  4  1  0  0  0  0
  5 12  1  0  0  0  0
  6  5  2  0  0  0  0
  7  1  1  0  0  0  0
  8  2  1  0  0  0  0
  9 10  3  0  0  0  0
 11  6  1  0  0  0  0
M  RAD  1   3   2
M  END
