Coordinates from ORCA-job Ph-N2+-B3LYPG-aug-cc-pVDZ-scan-d09-49-n400
 OpenBabel09291715233D

 13 12  0  0  0  0  0  0  0  0999 V2000
   -2.3370    0.1135   -1.1171 C   0  0  0  0  0  0  0  0  0  0  0  0
   -0.9052    0.0118   -1.0267 C   0  0  0  0  0  0  0  0  0  0  0  0
   -0.5887    0.8571   -0.0528 C   0  0  0  0  0  0  0  0  0  0  0  0
   -1.0059    1.7342    0.8526 C   0  0  0  0  0  0  0  0  0  0  0  0
   -2.4330    1.7568    0.6759 C   0  0  0  0  0  0  0  0  0  0  0  0
   -3.0662    0.9648   -0.2842 C   0  0  0  0  0  0  0  0  0  0  0  0
   -2.8084   -0.5157   -1.8755 H   0  0  0  0  0  0  0  0  0  0  0  0
   -0.2893   -0.6335   -1.6492 H   0  0  0  0  0  0  0  0  0  0  0  0
    3.6473    0.6726    0.3423 N   0  0  0  0  0  0  0  0  0  0  0  0
    4.7457    0.6247    0.4445 N   0  0  0  0  0  0  0  0  0  0  0  0
   -4.1499    1.0119   -0.3855 H   0  0  0  0  0  0  0  0  0  0  0  0
   -2.9806    2.4304    1.3391 H   0  0  0  0  0  0  0  0  0  0  0  0
   -0.4625    2.3291    1.5834 H   0  0  0  0  0  0  0  0  0  0  0  0
  1  2  2  0  0  0  0
  1  6  1  0  0  0  0
  2  3  1  0  0  0  0
  3  4  2  0  0  0  0
  4 13  1  0  0  0  0
  5  4  1  0  0  0  0
  5 12  1  0  0  0  0
  6  5  2  0  0  0  0
  7  1  1  0  0  0  0
  8  2  1  0  0  0  0
  9 10  3  0  0  0  0
 11  6  1  0  0  0  0
M  RAD  1   3   2
M  END
