Coordinates from ORCA-job Ph-N2+-B3LYPG-aug-cc-pVDZ-scan-d09-49-n400
 OpenBabel09291715233D

 13 12  0  0  0  0  0  0  0  0999 V2000
   -2.3063    0.1122   -1.1143 C   0  0  0  0  0  0  0  0  0  0  0  0
   -0.8746    0.0105   -1.0239 C   0  0  0  0  0  0  0  0  0  0  0  0
   -0.5578    0.8557   -0.0499 C   0  0  0  0  0  0  0  0  0  0  0  0
   -0.9753    1.7328    0.8554 C   0  0  0  0  0  0  0  0  0  0  0  0
   -2.4023    1.7555    0.6788 C   0  0  0  0  0  0  0  0  0  0  0  0
   -3.0356    0.9635   -0.2814 C   0  0  0  0  0  0  0  0  0  0  0  0
   -2.7779   -0.5170   -1.8726 H   0  0  0  0  0  0  0  0  0  0  0  0
   -0.2586   -0.6347   -1.6462 H   0  0  0  0  0  0  0  0  0  0  0  0
    3.4788    0.6799    0.3266 N   0  0  0  0  0  0  0  0  0  0  0  0
    4.5770    0.6321    0.4288 N   0  0  0  0  0  0  0  0  0  0  0  0
   -4.1192    1.0106   -0.3826 H   0  0  0  0  0  0  0  0  0  0  0  0
   -2.9501    2.4290    1.3419 H   0  0  0  0  0  0  0  0  0  0  0  0
   -0.4317    2.3276    1.5861 H   0  0  0  0  0  0  0  0  0  0  0  0
  1  2  2  0  0  0  0
  1  6  1  0  0  0  0
  2  3  1  0  0  0  0
  3  4  2  0  0  0  0
  4 13  1  0  0  0  0
  5  4  1  0  0  0  0
  5 12  1  0  0  0  0
  6  5  2  0  0  0  0
  7  1  1  0  0  0  0
  8  2  1  0  0  0  0
  9 10  3  0  0  0  0
 11  6  1  0  0  0  0
M  RAD  1   3   2
M  END
