Coordinates from ORCA-job Ph-N2+-B3LYPG-aug-cc-pVDZ-scan-d09-49-n400
 OpenBabel09291715233D

 13 12  0  0  0  0  0  0  0  0999 V2000
   -2.3124    0.1124   -1.1149 C   0  0  0  0  0  0  0  0  0  0  0  0
   -0.8807    0.0108   -1.0244 C   0  0  0  0  0  0  0  0  0  0  0  0
   -0.5640    0.8560   -0.0505 C   0  0  0  0  0  0  0  0  0  0  0  0
   -0.9814    1.7331    0.8549 C   0  0  0  0  0  0  0  0  0  0  0  0
   -2.4085    1.7558    0.6782 C   0  0  0  0  0  0  0  0  0  0  0  0
   -3.0417    0.9637   -0.2820 C   0  0  0  0  0  0  0  0  0  0  0  0
   -2.7840   -0.5168   -1.8732 H   0  0  0  0  0  0  0  0  0  0  0  0
   -0.2647   -0.6345   -1.6468 H   0  0  0  0  0  0  0  0  0  0  0  0
    3.5125    0.6785    0.3298 N   0  0  0  0  0  0  0  0  0  0  0  0
    4.6107    0.6306    0.4319 N   0  0  0  0  0  0  0  0  0  0  0  0
   -4.1254    1.0109   -0.3832 H   0  0  0  0  0  0  0  0  0  0  0  0
   -2.9562    2.4293    1.3414 H   0  0  0  0  0  0  0  0  0  0  0  0
   -0.4379    2.3279    1.5855 H   0  0  0  0  0  0  0  0  0  0  0  0
  1  2  2  0  0  0  0
  1  6  1  0  0  0  0
  2  3  1  0  0  0  0
  3  4  2  0  0  0  0
  4 13  1  0  0  0  0
  5  4  1  0  0  0  0
  5 12  1  0  0  0  0
  6  5  2  0  0  0  0
  7  1  1  0  0  0  0
  8  2  1  0  0  0  0
  9 10  3  0  0  0  0
 11  6  1  0  0  0  0
M  RAD  1   3   2
M  END
