Coordinates from ORCA-job Ph-N2+-B3LYPG-aug-cc-pVDZ-scan-d09-49-n400
 OpenBabel09291715233D

 13 12  0  0  0  0  0  0  0  0999 V2000
   -2.0204    0.0987   -1.0887 C   0  0  0  0  0  0  0  0  0  0  0  0
   -0.6067    0.0051   -0.9920 C   0  0  0  0  0  0  0  0  0  0  0  0
   -0.1941    0.8398   -0.0161 C   0  0  0  0  0  0  0  0  0  0  0  0
   -0.7065    1.7148    0.8735 C   0  0  0  0  0  0  0  0  0  0  0  0
   -2.1164    1.7441    0.7066 C   0  0  0  0  0  0  0  0  0  0  0  0
   -2.7500    0.9510   -0.2547 C   0  0  0  0  0  0  0  0  0  0  0  0
   -2.5090   -0.5226   -1.8407 H   0  0  0  0  0  0  0  0  0  0  0  0
    0.0016   -0.6420   -1.6176 H   0  0  0  0  0  0  0  0  0  0  0  0
    1.9277    0.7475    0.1819 N   0  0  0  0  0  0  0  0  0  0  0  0
    3.0247    0.6998    0.2843 N   0  0  0  0  0  0  0  0  0  0  0  0
   -3.8336    0.9982   -0.3558 H   0  0  0  0  0  0  0  0  0  0  0  0
   -2.6802    2.4111    1.3603 H   0  0  0  0  0  0  0  0  0  0  0  0
   -0.1708    2.3122    1.6059 H   0  0  0  0  0  0  0  0  0  0  0  0
  1  2  2  0  0  0  0
  1  6  1  0  0  0  0
  2  3  1  0  0  0  0
  3  4  2  0  0  0  0
  4 13  1  0  0  0  0
  5  4  1  0  0  0  0
  5 12  1  0  0  0  0
  6  5  2  0  0  0  0
  7  1  1  0  0  0  0
  8  2  1  0  0  0  0
  9 10  3  0  0  0  0
 11  6  1  0  0  0  0
M  RAD  1   3   2
M  END
