Coordinates from ORCA-job Ph-N2+-B3LYPG-aug-cc-pVDZ-scan-d09-49-n400
 OpenBabel09291715233D

 13 13  0  0  0  0  0  0  0  0999 V2000
   -1.9741    0.0946   -1.0867 C   0  0  0  0  0  0  0  0  0  0  0  0
   -0.5757    0.0099   -0.9824 C   0  0  0  0  0  0  0  0  0  0  0  0
   -0.0768    0.8347   -0.0052 C   0  0  0  0  0  0  0  0  0  0  0  0
   -0.6747    1.7073    0.8697 C   0  0  0  0  0  0  0  0  0  0  0  0
   -2.0704    1.7442    0.7132 C   0  0  0  0  0  0  0  0  0  0  0  0
   -2.7039    0.9490   -0.2504 C   0  0  0  0  0  0  0  0  0  0  0  0
   -2.4775   -0.5195   -1.8330 H   0  0  0  0  0  0  0  0  0  0  0  0
    0.0287   -0.6393   -1.6108 H   0  0  0  0  0  0  0  0  0  0  0  0
    1.6860    0.7580    0.1594 N   0  0  0  0  0  0  0  0  0  0  0  0
    2.7836    0.7103    0.2618 N   0  0  0  0  0  0  0  0  0  0  0  0
   -3.7876    0.9962   -0.3515 H   0  0  0  0  0  0  0  0  0  0  0  0
   -2.6482    2.4053    1.3585 H   0  0  0  0  0  0  0  0  0  0  0  0
   -0.1432    2.3071    1.6042 H   0  0  0  0  0  0  0  0  0  0  0  0
  1  2  2  0  0  0  0
  1  6  1  0  0  0  0
  2  3  1  0  0  0  0
  3  9  1  0  0  0  0
  3  4  2  0  0  0  0
  4 13  1  0  0  0  0
  5  4  1  0  0  0  0
  5 12  1  0  0  0  0
  6  5  2  0  0  0  0
  7  1  1  0  0  0  0
  8  2  1  0  0  0  0
  9 10  1  0  0  0  0
 11  6  1  0  0  0  0
M  RAD  2   9   2  10   3
M  END
