Coordinates from ORCA-job Ph-N2+-B3LYPG-aug-cc-pVDZ-scan-d09-49-n400
 OpenBabel09291715233D

 13 13  0  0  0  0  0  0  0  0999 V2000
   -1.8967    0.0892   -1.0817 C   0  0  0  0  0  0  0  0  0  0  0  0
   -0.5264    0.0151   -0.9698 C   0  0  0  0  0  0  0  0  0  0  0  0
    0.1733    0.8241    0.0180 C   0  0  0  0  0  0  0  0  0  0  0  0
   -0.6246    1.6978    0.8663 C   0  0  0  0  0  0  0  0  0  0  0  0
   -1.9932    1.7428    0.7226 C   0  0  0  0  0  0  0  0  0  0  0  0
   -2.6329    0.9460   -0.2438 C   0  0  0  0  0  0  0  0  0  0  0  0
   -2.4059   -0.5224   -1.8259 H   0  0  0  0  0  0  0  0  0  0  0  0
    0.0752   -0.6381   -1.6028 H   0  0  0  0  0  0  0  0  0  0  0  0
    1.2281    0.7780    0.1166 N   0  0  0  0  0  0  0  0  0  0  0  0
    2.3597    0.7286    0.2224 N   0  0  0  0  0  0  0  0  0  0  0  0
   -3.7177    0.9931   -0.3450 H   0  0  0  0  0  0  0  0  0  0  0  0
   -2.5765    2.4018    1.3650 H   0  0  0  0  0  0  0  0  0  0  0  0
   -0.0963    2.3016    1.6049 H   0  0  0  0  0  0  0  0  0  0  0  0
  1  2  2  0  0  0  0
  1  6  1  0  0  0  0
  2  3  1  0  0  0  0
  3  9  1  0  0  0  0
  3  4  2  0  0  0  0
  4 13  1  0  0  0  0
  5  4  1  0  0  0  0
  5 12  1  0  0  0  0
  6  5  2  0  0  0  0
  7  1  1  0  0  0  0
  8  2  1  0  0  0  0
  9 10  1  0  0  0  0
 11  6  1  0  0  0  0
M  RAD  2   9   2  10   3
M  END
