Coordinates from ORCA-job Ph-N2+-B3LYPG-aug-cc-pVDZ-scan-d09-49-n400
 OpenBabel09291715233D

 13 12  0  0  0  0  0  0  0  0999 V2000
   -2.3481    0.1141   -1.1180 C   0  0  0  0  0  0  0  0  0  0  0  0
   -0.9165    0.0120   -1.0281 C   0  0  0  0  0  0  0  0  0  0  0  0
   -0.5971    0.8574   -0.0535 C   0  0  0  0  0  0  0  0  0  0  0  0
   -1.0172    1.7350    0.8519 C   0  0  0  0  0  0  0  0  0  0  0  0
   -2.4441    1.7572    0.6747 C   0  0  0  0  0  0  0  0  0  0  0  0
   -3.0772    0.9653   -0.2853 C   0  0  0  0  0  0  0  0  0  0  0  0
   -2.8197   -0.5150   -1.8764 H   0  0  0  0  0  0  0  0  0  0  0  0
   -0.3018   -0.6337   -1.6512 H   0  0  0  0  0  0  0  0  0  0  0  0
    3.7087    0.6699    0.3481 N   0  0  0  0  0  0  0  0  0  0  0  0
    4.8071    0.6220    0.4502 N   0  0  0  0  0  0  0  0  0  0  0  0
   -4.1609    1.0124   -0.3865 H   0  0  0  0  0  0  0  0  0  0  0  0
   -2.9919    2.4307    1.3378 H   0  0  0  0  0  0  0  0  0  0  0  0
   -0.4751    2.3304    1.5831 H   0  0  0  0  0  0  0  0  0  0  0  0
  1  2  2  0  0  0  0
  1  6  1  0  0  0  0
  2  3  1  0  0  0  0
  3  4  2  0  0  0  0
  4 13  1  0  0  0  0
  5  4  1  0  0  0  0
  5 12  1  0  0  0  0
  6  5  2  0  0  0  0
  7  1  1  0  0  0  0
  8  2  1  0  0  0  0
  9 10  3  0  0  0  0
 11  6  1  0  0  0  0
M  RAD  1   3   2
M  END
