Coordinates from ORCA-job Ph-N2+-B3LYPG-aug-cc-pVDZ-scan-d09-49-n400
 OpenBabel09291715233D

 13 12  0  0  0  0  0  0  0  0999 V2000
   -2.0662    0.1015   -1.0921 C   0  0  0  0  0  0  0  0  0  0  0  0
   -0.6430    0.0030   -0.9995 C   0  0  0  0  0  0  0  0  0  0  0  0
   -0.2813    0.8436   -0.0242 C   0  0  0  0  0  0  0  0  0  0  0  0
   -0.7431    1.7201    0.8741 C   0  0  0  0  0  0  0  0  0  0  0  0
   -2.1621    1.7452    0.7014 C   0  0  0  0  0  0  0  0  0  0  0  0
   -2.7957    0.9530   -0.2590 C   0  0  0  0  0  0  0  0  0  0  0  0
   -2.5457   -0.5240   -1.8475 H   0  0  0  0  0  0  0  0  0  0  0  0
   -0.0321   -0.6432   -1.6237 H   0  0  0  0  0  0  0  0  0  0  0  0
    2.1697    0.7370    0.2045 N   0  0  0  0  0  0  0  0  0  0  0  0
    3.2671    0.6892    0.3069 N   0  0  0  0  0  0  0  0  0  0  0  0
   -3.8793    1.0002   -0.3601 H   0  0  0  0  0  0  0  0  0  0  0  0
   -2.7172    2.4158    1.3603 H   0  0  0  0  0  0  0  0  0  0  0  0
   -0.2048    2.3163    1.6056 H   0  0  0  0  0  0  0  0  0  0  0  0
  1  2  2  0  0  0  0
  1  6  1  0  0  0  0
  2  3  1  0  0  0  0
  3  4  2  0  0  0  0
  4 13  1  0  0  0  0
  5  4  1  0  0  0  0
  5 12  1  0  0  0  0
  6  5  2  0  0  0  0
  7  1  1  0  0  0  0
  8  2  1  0  0  0  0
  9 10  3  0  0  0  0
 11  6  1  0  0  0  0
M  RAD  1   3   2
M  END
