Coordinates from ORCA-job Ph-N2+-B3LYPG-aug-cc-pVDZ-scan-d09-49-n400
 OpenBabel09291715233D

 13 12  0  0  0  0  0  0  0  0999 V2000
   -2.1283    0.1044   -1.0977 C   0  0  0  0  0  0  0  0  0  0  0  0
   -0.6995    0.0035   -1.0069 C   0  0  0  0  0  0  0  0  0  0  0  0
   -0.3666    0.8473   -0.0322 C   0  0  0  0  0  0  0  0  0  0  0  0
   -0.8000    1.7245    0.8710 C   0  0  0  0  0  0  0  0  0  0  0  0
   -2.2242    1.7478    0.6955 C   0  0  0  0  0  0  0  0  0  0  0  0
   -2.8575    0.9557   -0.2647 C   0  0  0  0  0  0  0  0  0  0  0  0
   -2.6030   -0.5234   -1.8549 H   0  0  0  0  0  0  0  0  0  0  0  0
   -0.0850   -0.6418   -1.6295 H   0  0  0  0  0  0  0  0  0  0  0  0
    2.5032    0.7225    0.2357 N   0  0  0  0  0  0  0  0  0  0  0  0
    3.6009    0.6747    0.3380 N   0  0  0  0  0  0  0  0  0  0  0  0
   -3.9411    1.0029   -0.3659 H   0  0  0  0  0  0  0  0  0  0  0  0
   -2.7748    2.4201    1.3569 H   0  0  0  0  0  0  0  0  0  0  0  0
   -0.2578    2.3194    1.6016 H   0  0  0  0  0  0  0  0  0  0  0  0
  1  2  2  0  0  0  0
  1  6  1  0  0  0  0
  2  3  1  0  0  0  0
  3  4  2  0  0  0  0
  4 13  1  0  0  0  0
  5  4  1  0  0  0  0
  5 12  1  0  0  0  0
  6  5  2  0  0  0  0
  7  1  1  0  0  0  0
  8  2  1  0  0  0  0
  9 10  3  0  0  0  0
 11  6  1  0  0  0  0
M  RAD  1   3   2
M  END
