Coordinates from ORCA-job Ph-N2+-B3LYPG-aug-cc-pVDZ-scan-d09-49-n400
 OpenBabel09291715233D

 13 12  0  0  0  0  0  0  0  0999 V2000
   -2.3891    0.1158   -1.1220 C   0  0  0  0  0  0  0  0  0  0  0  0
   -0.9572    0.0141   -1.0316 C   0  0  0  0  0  0  0  0  0  0  0  0
   -0.6410    0.8594   -0.0576 C   0  0  0  0  0  0  0  0  0  0  0  0
   -1.0580    1.7365    0.8478 C   0  0  0  0  0  0  0  0  0  0  0  0
   -2.4852    1.7591    0.6711 C   0  0  0  0  0  0  0  0  0  0  0  0
   -3.1183    0.9671   -0.2891 C   0  0  0  0  0  0  0  0  0  0  0  0
   -2.8604   -0.5135   -1.8805 H   0  0  0  0  0  0  0  0  0  0  0  0
   -0.3415   -0.6313   -1.6542 H   0  0  0  0  0  0  0  0  0  0  0  0
    3.9341    0.6601    0.3691 N   0  0  0  0  0  0  0  0  0  0  0  0
    5.0325    0.6122    0.4711 N   0  0  0  0  0  0  0  0  0  0  0  0
   -4.2020    1.0142   -0.3904 H   0  0  0  0  0  0  0  0  0  0  0  0
   -3.0327    2.4327    1.3343 H   0  0  0  0  0  0  0  0  0  0  0  0
   -0.5148    2.3315    1.5787 H   0  0  0  0  0  0  0  0  0  0  0  0
  1  2  2  0  0  0  0
  1  6  1  0  0  0  0
  2  3  1  0  0  0  0
  3  4  2  0  0  0  0
  4 13  1  0  0  0  0
  5  4  1  0  0  0  0
  5 12  1  0  0  0  0
  6  5  2  0  0  0  0
  7  1  1  0  0  0  0
  8  2  1  0  0  0  0
  9 10  3  0  0  0  0
 11  6  1  0  0  0  0
M  RAD  1   3   2
M  END
