Coordinates from ORCA-job Ph-N2+-B3LYPG-aug-cc-pVDZ-scan-d09-49-n400
 OpenBabel09291715233D

 13 12  0  0  0  0  0  0  0  0999 V2000
   -2.3737    0.1151   -1.1206 C   0  0  0  0  0  0  0  0  0  0  0  0
   -0.9419    0.0134   -1.0302 C   0  0  0  0  0  0  0  0  0  0  0  0
   -0.6256    0.8587   -0.0562 C   0  0  0  0  0  0  0  0  0  0  0  0
   -1.0426    1.7358    0.8493 C   0  0  0  0  0  0  0  0  0  0  0  0
   -2.4698    1.7584    0.6725 C   0  0  0  0  0  0  0  0  0  0  0  0
   -3.1030    0.9664   -0.2877 C   0  0  0  0  0  0  0  0  0  0  0  0
   -2.8451   -0.5142   -1.8790 H   0  0  0  0  0  0  0  0  0  0  0  0
   -0.3262   -0.6320   -1.6527 H   0  0  0  0  0  0  0  0  0  0  0  0
    3.8497    0.6637    0.3612 N   0  0  0  0  0  0  0  0  0  0  0  0
    4.9481    0.6159    0.4633 N   0  0  0  0  0  0  0  0  0  0  0  0
   -4.1867    1.0135   -0.3890 H   0  0  0  0  0  0  0  0  0  0  0  0
   -3.0174    2.4320    1.3357 H   0  0  0  0  0  0  0  0  0  0  0  0
   -0.4994    2.3308    1.5801 H   0  0  0  0  0  0  0  0  0  0  0  0
  1  2  2  0  0  0  0
  1  6  1  0  0  0  0
  2  3  1  0  0  0  0
  3  4  2  0  0  0  0
  4 13  1  0  0  0  0
  5  4  1  0  0  0  0
  5 12  1  0  0  0  0
  6  5  2  0  0  0  0
  7  1  1  0  0  0  0
  8  2  1  0  0  0  0
  9 10  3  0  0  0  0
 11  6  1  0  0  0  0
M  RAD  1   3   2
M  END
