Coordinates from ORCA-job Ph-N2+-B3LYPG-aug-cc-pVDZ-scan-d09-49-n400
 OpenBabel09291715233D

 13 12  0  0  0  0  0  0  0  0999 V2000
   -2.0110    0.0980   -1.0882 C   0  0  0  0  0  0  0  0  0  0  0  0
   -0.5999    0.0058   -0.9904 C   0  0  0  0  0  0  0  0  0  0  0  0
   -0.1733    0.8389   -0.0142 C   0  0  0  0  0  0  0  0  0  0  0  0
   -0.6996    1.7135    0.8731 C   0  0  0  0  0  0  0  0  0  0  0  0
   -2.1070    1.7440    0.7078 C   0  0  0  0  0  0  0  0  0  0  0  0
   -2.7407    0.9506   -0.2538 C   0  0  0  0  0  0  0  0  0  0  0  0
   -2.5023   -0.5220   -1.8391 H   0  0  0  0  0  0  0  0  0  0  0  0
    0.0077   -0.6416   -1.6163 H   0  0  0  0  0  0  0  0  0  0  0  0
    1.8788    0.7496    0.1774 N   0  0  0  0  0  0  0  0  0  0  0  0
    2.9757    0.7019    0.2797 N   0  0  0  0  0  0  0  0  0  0  0  0
   -3.8242    0.9978   -0.3550 H   0  0  0  0  0  0  0  0  0  0  0  0
   -2.6734    2.4099    1.3600 H   0  0  0  0  0  0  0  0  0  0  0  0
   -0.1646    2.3112    1.6057 H   0  0  0  0  0  0  0  0  0  0  0  0
  1  2  2  0  0  0  0
  1  6  1  0  0  0  0
  2  3  1  0  0  0  0
  3  4  2  0  0  0  0
  4 13  1  0  0  0  0
  5  4  1  0  0  0  0
  5 12  1  0  0  0  0
  6  5  2  0  0  0  0
  7  1  1  0  0  0  0
  8  2  1  0  0  0  0
  9 10  3  0  0  0  0
 11  6  1  0  0  0  0
M  RAD  1   3   2
M  END
