Coordinates from ORCA-job Ph-N2+-B3LYPG-aug-cc-pVDZ-scan-d09-49-n400
 OpenBabel09291715233D

 13 12  0  0  0  0  0  0  0  0999 V2000
   -2.3155    0.1126   -1.1151 C   0  0  0  0  0  0  0  0  0  0  0  0
   -0.8838    0.0109   -1.0247 C   0  0  0  0  0  0  0  0  0  0  0  0
   -0.5671    0.8561   -0.0508 C   0  0  0  0  0  0  0  0  0  0  0  0
   -0.9845    1.7332    0.8546 C   0  0  0  0  0  0  0  0  0  0  0  0
   -2.4115    1.7559    0.6780 C   0  0  0  0  0  0  0  0  0  0  0  0
   -3.0448    0.9639   -0.2822 C   0  0  0  0  0  0  0  0  0  0  0  0
   -2.7871   -0.5166   -1.8735 H   0  0  0  0  0  0  0  0  0  0  0  0
   -0.2678   -0.6343   -1.6471 H   0  0  0  0  0  0  0  0  0  0  0  0
    3.5293    0.6777    0.3314 N   0  0  0  0  0  0  0  0  0  0  0  0
    4.6276    0.6299    0.4335 N   0  0  0  0  0  0  0  0  0  0  0  0
   -4.1284    1.0110   -0.3835 H   0  0  0  0  0  0  0  0  0  0  0  0
   -2.9592    2.4294    1.3411 H   0  0  0  0  0  0  0  0  0  0  0  0
   -0.4409    2.3280    1.5853 H   0  0  0  0  0  0  0  0  0  0  0  0
  1  2  2  0  0  0  0
  1  6  1  0  0  0  0
  2  3  1  0  0  0  0
  3  4  2  0  0  0  0
  4 13  1  0  0  0  0
  5  4  1  0  0  0  0
  5 12  1  0  0  0  0
  6  5  2  0  0  0  0
  7  1  1  0  0  0  0
  8  2  1  0  0  0  0
  9 10  3  0  0  0  0
 11  6  1  0  0  0  0
M  RAD  1   3   2
M  END
