Coordinates from ORCA-job Ph-N2+-B3LYPG-aug-cc-pVDZ-scan-d09-49-n400
 OpenBabel09291715233D

 13 12  0  0  0  0  0  0  0  0999 V2000
   -2.0817    0.1020   -1.0938 C   0  0  0  0  0  0  0  0  0  0  0  0
   -0.6560    0.0031   -1.0012 C   0  0  0  0  0  0  0  0  0  0  0  0
   -0.3091    0.8448   -0.0268 C   0  0  0  0  0  0  0  0  0  0  0  0
   -0.7563    1.7211    0.8734 C   0  0  0  0  0  0  0  0  0  0  0  0
   -2.1776    1.7461    0.7002 C   0  0  0  0  0  0  0  0  0  0  0  0
   -2.8112    0.9537   -0.2604 C   0  0  0  0  0  0  0  0  0  0  0  0
   -2.5595   -0.5243   -1.8498 H   0  0  0  0  0  0  0  0  0  0  0  0
   -0.0422   -0.6421   -1.6238 H   0  0  0  0  0  0  0  0  0  0  0  0
    2.2516    0.7334    0.2122 N   0  0  0  0  0  0  0  0  0  0  0  0
    3.3491    0.6857    0.3145 N   0  0  0  0  0  0  0  0  0  0  0  0
   -3.8947    1.0008   -0.3616 H   0  0  0  0  0  0  0  0  0  0  0  0
   -2.7312    2.4173    1.3599 H   0  0  0  0  0  0  0  0  0  0  0  0
   -0.2148    2.3160    1.6039 H   0  0  0  0  0  0  0  0  0  0  0  0
  1  2  2  0  0  0  0
  1  6  1  0  0  0  0
  2  3  1  0  0  0  0
  3  4  2  0  0  0  0
  4 13  1  0  0  0  0
  5  4  1  0  0  0  0
  5 12  1  0  0  0  0
  6  5  2  0  0  0  0
  7  1  1  0  0  0  0
  8  2  1  0  0  0  0
  9 10  3  0  0  0  0
 11  6  1  0  0  0  0
M  RAD  1   3   2
M  END
