Coordinates from ORCA-job Ph-N2+-B3LYPG-aug-cc-pVDZ-scan-d09-49-n400
 OpenBabel09291715233D

 13 13  0  0  0  0  0  0  0  0999 V2000
   -1.9140    0.0897   -1.0836 C   0  0  0  0  0  0  0  0  0  0  0  0
   -0.5373    0.0161   -0.9702 C   0  0  0  0  0  0  0  0  0  0  0  0
    0.1100    0.8266    0.0123 C   0  0  0  0  0  0  0  0  0  0  0  0
   -0.6354    1.6977    0.8648 C   0  0  0  0  0  0  0  0  0  0  0  0
   -2.0105    1.7438    0.7212 C   0  0  0  0  0  0  0  0  0  0  0  0
   -2.6474    0.9466   -0.2451 C   0  0  0  0  0  0  0  0  0  0  0  0
   -2.4247   -0.5208   -1.8269 H   0  0  0  0  0  0  0  0  0  0  0  0
    0.0598   -0.6380   -1.6049 H   0  0  0  0  0  0  0  0  0  0  0  0
    1.3444    0.7729    0.1275 N   0  0  0  0  0  0  0  0  0  0  0  0
    2.4605    0.7244    0.2316 N   0  0  0  0  0  0  0  0  0  0  0  0
   -3.7321    0.9938   -0.3464 H   0  0  0  0  0  0  0  0  0  0  0  0
   -2.5953    2.4020    1.3624 H   0  0  0  0  0  0  0  0  0  0  0  0
   -0.1118    2.3030    1.6041 H   0  0  0  0  0  0  0  0  0  0  0  0
  1  2  2  0  0  0  0
  1  6  1  0  0  0  0
  2  3  1  0  0  0  0
  3  9  1  0  0  0  0
  3  4  2  0  0  0  0
  4 13  1  0  0  0  0
  5  4  1  0  0  0  0
  5 12  1  0  0  0  0
  6  5  2  0  0  0  0
  7  1  1  0  0  0  0
  8  2  1  0  0  0  0
  9 10  1  0  0  0  0
 11  6  1  0  0  0  0
M  RAD  2   9   2  10   3
M  END
