Coordinates from ORCA-job Ph-N2+-B3LYPG-aug-cc-pVDZ-scan-d09-49-n400
 OpenBabel09291715233D

 13 13  0  0  0  0  0  0  0  0999 V2000
   -1.9598    0.0931   -1.0864 C   0  0  0  0  0  0  0  0  0  0  0  0
   -0.5669    0.0119   -0.9789 C   0  0  0  0  0  0  0  0  0  0  0  0
   -0.0338    0.8329   -0.0011 C   0  0  0  0  0  0  0  0  0  0  0  0
   -0.6657    1.7045    0.8679 C   0  0  0  0  0  0  0  0  0  0  0  0
   -2.0561    1.7444    0.7155 C   0  0  0  0  0  0  0  0  0  0  0  0
   -2.6898    0.9484   -0.2491 C   0  0  0  0  0  0  0  0  0  0  0  0
   -2.4672   -0.5190   -1.8309 H   0  0  0  0  0  0  0  0  0  0  0  0
    0.0354   -0.6385   -1.6089 H   0  0  0  0  0  0  0  0  0  0  0  0
    1.6094    0.7614    0.1522 N   0  0  0  0  0  0  0  0  0  0  0  0
    2.7087    0.7135    0.2548 N   0  0  0  0  0  0  0  0  0  0  0  0
   -3.7737    0.9956   -0.3503 H   0  0  0  0  0  0  0  0  0  0  0  0
   -2.6378    2.4039    1.3584 H   0  0  0  0  0  0  0  0  0  0  0  0
   -0.1363    2.3056    1.6035 H   0  0  0  0  0  0  0  0  0  0  0  0
  1  2  2  0  0  0  0
  1  6  1  0  0  0  0
  2  3  1  0  0  0  0
  3  9  1  0  0  0  0
  3  4  2  0  0  0  0
  4 13  1  0  0  0  0
  5  4  1  0  0  0  0
  5 12  1  0  0  0  0
  6  5  2  0  0  0  0
  7  1  1  0  0  0  0
  8  2  1  0  0  0  0
  9 10  1  0  0  0  0
 11  6  1  0  0  0  0
M  RAD  2   9   2  10   3
M  END
