Coordinates from ORCA-job Ph-N2+-B3LYPG-aug-cc-pVDZ-scan-d09-49-n400
 OpenBabel09291715233D

 13 12  0  0  0  0  0  0  0  0999 V2000
   -2.2194    0.1085   -1.1061 C   0  0  0  0  0  0  0  0  0  0  0  0
   -0.7885    0.0067   -1.0160 C   0  0  0  0  0  0  0  0  0  0  0  0
   -0.4666    0.8517   -0.0415 C   0  0  0  0  0  0  0  0  0  0  0  0
   -0.8890    1.7291    0.8635 C   0  0  0  0  0  0  0  0  0  0  0  0
   -2.3154    1.7516    0.6868 C   0  0  0  0  0  0  0  0  0  0  0  0
   -2.9486    0.9597   -0.2732 C   0  0  0  0  0  0  0  0  0  0  0  0
   -2.6919   -0.5203   -1.8641 H   0  0  0  0  0  0  0  0  0  0  0  0
   -0.1732   -0.6387   -1.6385 H   0  0  0  0  0  0  0  0  0  0  0  0
    3.0016    0.7008    0.2821 N   0  0  0  0  0  0  0  0  0  0  0  0
    4.0996    0.6530    0.3844 N   0  0  0  0  0  0  0  0  0  0  0  0
   -4.0323    1.0068   -0.3744 H   0  0  0  0  0  0  0  0  0  0  0  0
   -2.8639    2.4248    1.3495 H   0  0  0  0  0  0  0  0  0  0  0  0
   -0.3461    2.3241    1.5943 H   0  0  0  0  0  0  0  0  0  0  0  0
  1  2  2  0  0  0  0
  1  6  1  0  0  0  0
  2  3  1  0  0  0  0
  3  4  2  0  0  0  0
  4 13  1  0  0  0  0
  5  4  1  0  0  0  0
  5 12  1  0  0  0  0
  6  5  2  0  0  0  0
  7  1  1  0  0  0  0
  8  2  1  0  0  0  0
  9 10  3  0  0  0  0
 11  6  1  0  0  0  0
M  RAD  1   3   2
M  END
