Coordinates from ORCA-job Ph-N2+-B3LYPG-aug-cc-pVDZ-scan-d09-49-n400
 OpenBabel09291715233D

 13 12  0  0  0  0  0  0  0  0999 V2000
   -2.2695    0.1106   -1.1109 C   0  0  0  0  0  0  0  0  0  0  0  0
   -0.8380    0.0090   -1.0204 C   0  0  0  0  0  0  0  0  0  0  0  0
   -0.5206    0.8541   -0.0465 C   0  0  0  0  0  0  0  0  0  0  0  0
   -0.9386    1.7312    0.8588 C   0  0  0  0  0  0  0  0  0  0  0  0
   -2.3655    1.7539    0.6823 C   0  0  0  0  0  0  0  0  0  0  0  0
   -2.9988    0.9619   -0.2779 C   0  0  0  0  0  0  0  0  0  0  0  0
   -2.7413   -0.5185   -1.8691 H   0  0  0  0  0  0  0  0  0  0  0  0
   -0.2218   -0.6361   -1.6426 H   0  0  0  0  0  0  0  0  0  0  0  0
    3.2766    0.6888    0.3078 N   0  0  0  0  0  0  0  0  0  0  0  0
    4.3748    0.6409    0.4100 N   0  0  0  0  0  0  0  0  0  0  0  0
   -4.0825    1.0090   -0.3792 H   0  0  0  0  0  0  0  0  0  0  0  0
   -2.9134    2.4274    1.3453 H   0  0  0  0  0  0  0  0  0  0  0  0
   -0.3949    2.3258    1.5893 H   0  0  0  0  0  0  0  0  0  0  0  0
  1  2  2  0  0  0  0
  1  6  1  0  0  0  0
  2  3  1  0  0  0  0
  3  4  2  0  0  0  0
  4 13  1  0  0  0  0
  5  4  1  0  0  0  0
  5 12  1  0  0  0  0
  6  5  2  0  0  0  0
  7  1  1  0  0  0  0
  8  2  1  0  0  0  0
  9 10  3  0  0  0  0
 11  6  1  0  0  0  0
M  RAD  1   3   2
M  END
