Coordinates from ORCA-job Ph-N2+-B3LYPG-aug-cc-pVDZ-scan-d09-49-n400
 OpenBabel09291715233D

 13 13  0  0  0  0  0  0  0  0999 V2000
   -1.9402    0.0913   -1.0856 C   0  0  0  0  0  0  0  0  0  0  0  0
   -0.5548    0.0145   -0.9744 C   0  0  0  0  0  0  0  0  0  0  0  0
    0.0272    0.8302    0.0046 C   0  0  0  0  0  0  0  0  0  0  0  0
   -0.6532    1.7008    0.8657 C   0  0  0  0  0  0  0  0  0  0  0  0
   -2.0367    1.7445    0.7184 C   0  0  0  0  0  0  0  0  0  0  0  0
   -2.6712    0.9476   -0.2473 C   0  0  0  0  0  0  0  0  0  0  0  0
   -2.4510   -0.5192   -1.8289 H   0  0  0  0  0  0  0  0  0  0  0  0
    0.0443   -0.6379   -1.6070 H   0  0  0  0  0  0  0  0  0  0  0  0
    1.5009    0.7661    0.1421 N   0  0  0  0  0  0  0  0  0  0  0  0
    2.6049    0.7181    0.2451 N   0  0  0  0  0  0  0  0  0  0  0  0
   -3.7554    0.9948   -0.3485 H   0  0  0  0  0  0  0  0  0  0  0  0
   -2.6215    2.4027    1.3594 H   0  0  0  0  0  0  0  0  0  0  0  0
   -0.1273    2.3042    1.6033 H   0  0  0  0  0  0  0  0  0  0  0  0
  1  2  2  0  0  0  0
  1  6  1  0  0  0  0
  2  3  1  0  0  0  0
  3  9  1  0  0  0  0
  3  4  2  0  0  0  0
  4 13  1  0  0  0  0
  5  4  1  0  0  0  0
  5 12  1  0  0  0  0
  6  5  2  0  0  0  0
  7  1  1  0  0  0  0
  8  2  1  0  0  0  0
  9 10  1  0  0  0  0
 11  6  1  0  0  0  0
M  RAD  2   9   2  10   3
M  END
