Coordinates from ORCA-job Ph-N2+-B3LYPG-aug-cc-pVDZ-scan-d09-49-n400
 OpenBabel09291715233D

 13 12  0  0  0  0  0  0  0  0999 V2000
   -2.3297    0.1133   -1.1163 C   0  0  0  0  0  0  0  0  0  0  0  0
   -0.8981    0.0112   -1.0264 C   0  0  0  0  0  0  0  0  0  0  0  0
   -0.5786    0.8566   -0.0518 C   0  0  0  0  0  0  0  0  0  0  0  0
   -0.9988    1.7341    0.8536 C   0  0  0  0  0  0  0  0  0  0  0  0
   -2.4257    1.7564    0.6765 C   0  0  0  0  0  0  0  0  0  0  0  0
   -3.0588    0.9645   -0.2836 C   0  0  0  0  0  0  0  0  0  0  0  0
   -2.8014   -0.5158   -1.8746 H   0  0  0  0  0  0  0  0  0  0  0  0
   -0.2833   -0.6345   -1.6494 H   0  0  0  0  0  0  0  0  0  0  0  0
    3.6075    0.6743    0.3386 N   0  0  0  0  0  0  0  0  0  0  0  0
    4.7058    0.6265    0.4408 N   0  0  0  0  0  0  0  0  0  0  0  0
   -4.1425    1.0116   -0.3848 H   0  0  0  0  0  0  0  0  0  0  0  0
   -2.9736    2.4299    1.3395 H   0  0  0  0  0  0  0  0  0  0  0  0
   -0.4566    2.3296    1.5847 H   0  0  0  0  0  0  0  0  0  0  0  0
  1  2  2  0  0  0  0
  1  6  1  0  0  0  0
  2  3  1  0  0  0  0
  3  4  2  0  0  0  0
  4 13  1  0  0  0  0
  5  4  1  0  0  0  0
  5 12  1  0  0  0  0
  6  5  2  0  0  0  0
  7  1  1  0  0  0  0
  8  2  1  0  0  0  0
  9 10  3  0  0  0  0
 11  6  1  0  0  0  0
M  RAD  1   3   2
M  END
