Coordinates from ORCA-job Ph-N2+-B3LYPG-aug-cc-pVDZ-scan-d09-49-n400
 OpenBabel09291715233D

 13 13  0  0  0  0  0  0  0  0999 V2000
   -1.8958    0.0891   -1.0816 C   0  0  0  0  0  0  0  0  0  0  0  0
   -0.5258    0.0148   -0.9699 C   0  0  0  0  0  0  0  0  0  0  0  0
    0.1768    0.8234    0.0187 C   0  0  0  0  0  0  0  0  0  0  0  0
   -0.6240    1.6979    0.8666 C   0  0  0  0  0  0  0  0  0  0  0  0
   -1.9922    1.7428    0.7227 C   0  0  0  0  0  0  0  0  0  0  0  0
   -2.6321    0.9459   -0.2437 C   0  0  0  0  0  0  0  0  0  0  0  0
   -2.4049   -0.5224   -1.8260 H   0  0  0  0  0  0  0  0  0  0  0  0
    0.0761   -0.6381   -1.6028 H   0  0  0  0  0  0  0  0  0  0  0  0
    1.2217    0.7782    0.1161 N   0  0  0  0  0  0  0  0  0  0  0  0
    2.3544    0.7292    0.2215 N   0  0  0  0  0  0  0  0  0  0  0  0
   -3.7169    0.9932   -0.3450 H   0  0  0  0  0  0  0  0  0  0  0  0
   -2.5756    2.4020    1.3649 H   0  0  0  0  0  0  0  0  0  0  0  0
   -0.0954    2.3017    1.6050 H   0  0  0  0  0  0  0  0  0  0  0  0
  1  2  2  0  0  0  0
  1  6  1  0  0  0  0
  2  3  1  0  0  0  0
  3  9  1  0  0  0  0
  3  4  2  0  0  0  0
  4 13  1  0  0  0  0
  5  4  1  0  0  0  0
  5 12  1  0  0  0  0
  6  5  2  0  0  0  0
  7  1  1  0  0  0  0
  8  2  1  0  0  0  0
  9 10  1  0  0  0  0
 11  6  1  0  0  0  0
M  RAD  2   9   2  10   3
M  END
