Coordinates from ORCA-job Ph-N2+-B3LYPG-aug-cc-pVDZ-scan-d09-49-n400
 OpenBabel09291715233D

 13 12  0  0  0  0  0  0  0  0999 V2000
   -2.2068    0.1078   -1.1051 C   0  0  0  0  0  0  0  0  0  0  0  0
   -0.7758    0.0064   -1.0144 C   0  0  0  0  0  0  0  0  0  0  0  0
   -0.4562    0.8512   -0.0405 C   0  0  0  0  0  0  0  0  0  0  0  0
   -0.8764    1.7283    0.8644 C   0  0  0  0  0  0  0  0  0  0  0  0
   -2.3028    1.7512    0.6881 C   0  0  0  0  0  0  0  0  0  0  0  0
   -2.9361    0.9591   -0.2721 C   0  0  0  0  0  0  0  0  0  0  0  0
   -2.6793   -0.5210   -1.8631 H   0  0  0  0  0  0  0  0  0  0  0  0
   -0.1594   -0.6385   -1.6364 H   0  0  0  0  0  0  0  0  0  0  0  0
    2.9322    0.7038    0.2757 N   0  0  0  0  0  0  0  0  0  0  0  0
    4.0302    0.6560    0.3780 N   0  0  0  0  0  0  0  0  0  0  0  0
   -4.0198    1.0063   -0.3733 H   0  0  0  0  0  0  0  0  0  0  0  0
   -2.8512    2.4244    1.3508 H   0  0  0  0  0  0  0  0  0  0  0  0
   -0.3323    2.3226    1.5946 H   0  0  0  0  0  0  0  0  0  0  0  0
  1  2  2  0  0  0  0
  1  6  1  0  0  0  0
  2  3  1  0  0  0  0
  3  4  2  0  0  0  0
  4 13  1  0  0  0  0
  5  4  1  0  0  0  0
  5 12  1  0  0  0  0
  6  5  2  0  0  0  0
  7  1  1  0  0  0  0
  8  2  1  0  0  0  0
  9 10  3  0  0  0  0
 11  6  1  0  0  0  0
M  RAD  1   3   2
M  END
