Coordinates from ORCA-job Ph-N2+-B3LYPG-aug-cc-pVDZ-scan-d09-49-n400
 OpenBabel09291715233D

 13 13  0  0  0  0  0  0  0  0999 V2000
   -1.9551    0.0926   -1.0862 C   0  0  0  0  0  0  0  0  0  0  0  0
   -0.5641    0.0126   -0.9778 C   0  0  0  0  0  0  0  0  0  0  0  0
   -0.0193    0.8322    0.0002 C   0  0  0  0  0  0  0  0  0  0  0  0
   -0.6628    1.7036    0.8673 C   0  0  0  0  0  0  0  0  0  0  0  0
   -2.0515    1.7445    0.7162 C   0  0  0  0  0  0  0  0  0  0  0  0
   -2.6853    0.9482   -0.2487 C   0  0  0  0  0  0  0  0  0  0  0  0
   -2.4636   -0.5190   -1.8304 H   0  0  0  0  0  0  0  0  0  0  0  0
    0.0375   -0.6383   -1.6084 H   0  0  0  0  0  0  0  0  0  0  0  0
    1.5840    0.7625    0.1499 N   0  0  0  0  0  0  0  0  0  0  0  0
    2.6841    0.7146    0.2525 N   0  0  0  0  0  0  0  0  0  0  0  0
   -3.7693    0.9954   -0.3498 H   0  0  0  0  0  0  0  0  0  0  0  0
   -2.6342    2.4035    1.3585 H   0  0  0  0  0  0  0  0  0  0  0  0
   -0.1342    2.3052    1.6034 H   0  0  0  0  0  0  0  0  0  0  0  0
  1  2  2  0  0  0  0
  1  6  1  0  0  0  0
  2  3  1  0  0  0  0
  3  9  1  0  0  0  0
  3  4  2  0  0  0  0
  4 13  1  0  0  0  0
  5  4  1  0  0  0  0
  5 12  1  0  0  0  0
  6  5  2  0  0  0  0
  7  1  1  0  0  0  0
  8  2  1  0  0  0  0
  9 10  1  0  0  0  0
 11  6  1  0  0  0  0
M  RAD  2   9   2  10   3
M  END
