Coordinates from ORCA-job Ph-N2+-B3LYPG-aug-cc-pVDZ-scan-d09-49-n400
 OpenBabel09291715233D

 13 12  0  0  0  0  0  0  0  0999 V2000
   -2.4247    0.1175   -1.1251 C   0  0  0  0  0  0  0  0  0  0  0  0
   -0.9930    0.0154   -1.0352 C   0  0  0  0  0  0  0  0  0  0  0  0
   -0.6739    0.8608   -0.0606 C   0  0  0  0  0  0  0  0  0  0  0  0
   -1.0938    1.7384    0.8448 C   0  0  0  0  0  0  0  0  0  0  0  0
   -2.5209    1.7605    0.6676 C   0  0  0  0  0  0  0  0  0  0  0  0
   -3.1539    0.9686   -0.2924 C   0  0  0  0  0  0  0  0  0  0  0  0
   -2.8962   -0.5118   -1.8836 H   0  0  0  0  0  0  0  0  0  0  0  0
   -0.3786   -0.6306   -1.6585 H   0  0  0  0  0  0  0  0  0  0  0  0
    4.1305    0.6515    0.3874 N   0  0  0  0  0  0  0  0  0  0  0  0
    5.2290    0.6036    0.4894 N   0  0  0  0  0  0  0  0  0  0  0  0
   -4.2376    1.0157   -0.3937 H   0  0  0  0  0  0  0  0  0  0  0  0
   -3.0686    2.4341    1.3308 H   0  0  0  0  0  0  0  0  0  0  0  0
   -0.5521    2.3340    1.5762 H   0  0  0  0  0  0  0  0  0  0  0  0
  1  2  2  0  0  0  0
  1  6  1  0  0  0  0
  2  3  1  0  0  0  0
  3  4  2  0  0  0  0
  4 13  1  0  0  0  0
  5  4  1  0  0  0  0
  5 12  1  0  0  0  0
  6  5  2  0  0  0  0
  7  1  1  0  0  0  0
  8  2  1  0  0  0  0
  9 10  3  0  0  0  0
 11  6  1  0  0  0  0
M  RAD  1   3   2
M  END
