Coordinates from ORCA-job Ph-N2+-B3LYPG-aug-cc-pVDZ-scan-d09-49-n400
 OpenBabel09291715233D

 13 12  0  0  0  0  0  0  0  0999 V2000
   -2.4044    0.1165   -1.1234 C   0  0  0  0  0  0  0  0  0  0  0  0
   -0.9725    0.0147   -1.0330 C   0  0  0  0  0  0  0  0  0  0  0  0
   -0.6563    0.8600   -0.0590 C   0  0  0  0  0  0  0  0  0  0  0  0
   -1.0733    1.7372    0.8464 C   0  0  0  0  0  0  0  0  0  0  0  0
   -2.5006    1.7598    0.6696 C   0  0  0  0  0  0  0  0  0  0  0  0
   -3.1337    0.9677   -0.2906 C   0  0  0  0  0  0  0  0  0  0  0  0
   -2.8757   -0.5129   -1.8819 H   0  0  0  0  0  0  0  0  0  0  0  0
   -0.3569   -0.6307   -1.6556 H   0  0  0  0  0  0  0  0  0  0  0  0
    4.0185    0.6564    0.3769 N   0  0  0  0  0  0  0  0  0  0  0  0
    5.1169    0.6085    0.4790 N   0  0  0  0  0  0  0  0  0  0  0  0
   -4.2174    1.0148   -0.3918 H   0  0  0  0  0  0  0  0  0  0  0  0
   -3.0481    2.4334    1.3329 H   0  0  0  0  0  0  0  0  0  0  0  0
   -0.5302    2.3323    1.5773 H   0  0  0  0  0  0  0  0  0  0  0  0
  1  2  2  0  0  0  0
  1  6  1  0  0  0  0
  2  3  1  0  0  0  0
  3  4  2  0  0  0  0
  4 13  1  0  0  0  0
  5  4  1  0  0  0  0
  5 12  1  0  0  0  0
  6  5  2  0  0  0  0
  7  1  1  0  0  0  0
  8  2  1  0  0  0  0
  9 10  3  0  0  0  0
 11  6  1  0  0  0  0
M  RAD  1   3   2
M  END
