Coordinates from ORCA-job Ph-N2+-B3LYPG-aug-cc-pVDZ-scan-d09-49-n400
 OpenBabel09291715233D

 13 12  0  0  0  0  0  0  0  0999 V2000
   -2.3216    0.1128   -1.1157 C   0  0  0  0  0  0  0  0  0  0  0  0
   -0.8899    0.0112   -1.0253 C   0  0  0  0  0  0  0  0  0  0  0  0
   -0.5732    0.8564   -0.0513 C   0  0  0  0  0  0  0  0  0  0  0  0
   -0.9906    1.7335    0.8540 C   0  0  0  0  0  0  0  0  0  0  0  0
   -2.4177    1.7562    0.6774 C   0  0  0  0  0  0  0  0  0  0  0  0
   -3.0509    0.9641   -0.2828 C   0  0  0  0  0  0  0  0  0  0  0  0
   -2.7932   -0.5164   -1.8741 H   0  0  0  0  0  0  0  0  0  0  0  0
   -0.2740   -0.6341   -1.6477 H   0  0  0  0  0  0  0  0  0  0  0  0
    3.5630    0.6763    0.3345 N   0  0  0  0  0  0  0  0  0  0  0  0
    4.6613    0.6284    0.4366 N   0  0  0  0  0  0  0  0  0  0  0  0
   -4.1346    1.0113   -0.3841 H   0  0  0  0  0  0  0  0  0  0  0  0
   -2.9654    2.4297    1.3405 H   0  0  0  0  0  0  0  0  0  0  0  0
   -0.4471    2.3283    1.5847 H   0  0  0  0  0  0  0  0  0  0  0  0
  1  2  2  0  0  0  0
  1  6  1  0  0  0  0
  2  3  1  0  0  0  0
  3  4  2  0  0  0  0
  4 13  1  0  0  0  0
  5  4  1  0  0  0  0
  5 12  1  0  0  0  0
  6  5  2  0  0  0  0
  7  1  1  0  0  0  0
  8  2  1  0  0  0  0
  9 10  3  0  0  0  0
 11  6  1  0  0  0  0
M  RAD  1   3   2
M  END
