Coordinates from ORCA-job Ph-N2+-B3LYPG-aug-cc-pVDZ-scan-d09-49-n400
 OpenBabel09291715233D

 13 13  0  0  0  0  0  0  0  0999 V2000
   -1.9192    0.0900   -1.0841 C   0  0  0  0  0  0  0  0  0  0  0  0
   -0.5408    0.0160   -0.9708 C   0  0  0  0  0  0  0  0  0  0  0  0
    0.0929    0.8273    0.0107 C   0  0  0  0  0  0  0  0  0  0  0  0
   -0.6390    1.6981    0.8647 C   0  0  0  0  0  0  0  0  0  0  0  0
   -2.0158    1.7440    0.7208 C   0  0  0  0  0  0  0  0  0  0  0  0
   -2.6520    0.9468   -0.2455 C   0  0  0  0  0  0  0  0  0  0  0  0
   -2.4303   -0.5204   -1.8273 H   0  0  0  0  0  0  0  0  0  0  0  0
    0.0562   -0.6379   -1.6054 H   0  0  0  0  0  0  0  0  0  0  0  0
    1.3771    0.7715    0.1306 N   0  0  0  0  0  0  0  0  0  0  0  0
    2.4902    0.7231    0.2344 N   0  0  0  0  0  0  0  0  0  0  0  0
   -3.7366    0.9940   -0.3468 H   0  0  0  0  0  0  0  0  0  0  0  0
   -2.6008    2.4021    1.3617 H   0  0  0  0  0  0  0  0  0  0  0  0
   -0.1154    2.3033    1.6039 H   0  0  0  0  0  0  0  0  0  0  0  0
  1  2  2  0  0  0  0
  1  6  1  0  0  0  0
  2  3  1  0  0  0  0
  3  9  1  0  0  0  0
  3  4  2  0  0  0  0
  4 13  1  0  0  0  0
  5  4  1  0  0  0  0
  5 12  1  0  0  0  0
  6  5  2  0  0  0  0
  7  1  1  0  0  0  0
  8  2  1  0  0  0  0
  9 10  1  0  0  0  0
 11  6  1  0  0  0  0
M  RAD  2   9   2  10   3
M  END
