Coordinates from ORCA-job Ph-N2+-B3LYPG-aug-cc-pVDZ-scan-d09-49-n400
 OpenBabel09291715233D

 13 12  0  0  0  0  0  0  0  0999 V2000
   -2.1308    0.1043   -1.0982 C   0  0  0  0  0  0  0  0  0  0  0  0
   -0.7015    0.0039   -1.0068 C   0  0  0  0  0  0  0  0  0  0  0  0
   -0.3734    0.8476   -0.0328 C   0  0  0  0  0  0  0  0  0  0  0  0
   -0.8019    1.7243    0.8705 C   0  0  0  0  0  0  0  0  0  0  0  0
   -2.2267    1.7481    0.6955 C   0  0  0  0  0  0  0  0  0  0  0  0
   -2.8602    0.9558   -0.2650 C   0  0  0  0  0  0  0  0  0  0  0  0
   -2.6052   -0.5236   -1.8555 H   0  0  0  0  0  0  0  0  0  0  0  0
   -0.0854   -0.6407   -1.6285 H   0  0  0  0  0  0  0  0  0  0  0  0
    2.5163    0.7219    0.2369 N   0  0  0  0  0  0  0  0  0  0  0  0
    3.6140    0.6741    0.3392 N   0  0  0  0  0  0  0  0  0  0  0  0
   -3.9437    1.0030   -0.3661 H   0  0  0  0  0  0  0  0  0  0  0  0
   -2.7770    2.4205    1.3571 H   0  0  0  0  0  0  0  0  0  0  0  0
   -0.2582    2.3185    1.6005 H   0  0  0  0  0  0  0  0  0  0  0  0
  1  2  2  0  0  0  0
  1  6  1  0  0  0  0
  2  3  1  0  0  0  0
  3  4  2  0  0  0  0
  4 13  1  0  0  0  0
  5  4  1  0  0  0  0
  5 12  1  0  0  0  0
  6  5  2  0  0  0  0
  7  1  1  0  0  0  0
  8  2  1  0  0  0  0
  9 10  3  0  0  0  0
 11  6  1  0  0  0  0
M  RAD  1   3   2
M  END
