Coordinates from ORCA-job Ph-N2+-B3LYPG-aug-cc-pVDZ-scan-d09-49-n400
 OpenBabel09291715233D

 13 12  0  0  0  0  0  0  0  0999 V2000
   -2.3419    0.1139   -1.1174 C   0  0  0  0  0  0  0  0  0  0  0  0
   -0.9103    0.0118   -1.0275 C   0  0  0  0  0  0  0  0  0  0  0  0
   -0.5909    0.8572   -0.0530 C   0  0  0  0  0  0  0  0  0  0  0  0
   -1.0111    1.7347    0.8524 C   0  0  0  0  0  0  0  0  0  0  0  0
   -2.4380    1.7569    0.6753 C   0  0  0  0  0  0  0  0  0  0  0  0
   -3.0711    0.9650   -0.2847 C   0  0  0  0  0  0  0  0  0  0  0  0
   -2.8136   -0.5153   -1.8758 H   0  0  0  0  0  0  0  0  0  0  0  0
   -0.2956   -0.6340   -1.6506 H   0  0  0  0  0  0  0  0  0  0  0  0
    3.6750    0.6714    0.3449 N   0  0  0  0  0  0  0  0  0  0  0  0
    4.7733    0.6235    0.4470 N   0  0  0  0  0  0  0  0  0  0  0  0
   -4.1548    1.0121   -0.3860 H   0  0  0  0  0  0  0  0  0  0  0  0
   -2.9858    2.4304    1.3384 H   0  0  0  0  0  0  0  0  0  0  0  0
   -0.4689    2.3301    1.5837 H   0  0  0  0  0  0  0  0  0  0  0  0
  1  2  2  0  0  0  0
  1  6  1  0  0  0  0
  2  3  1  0  0  0  0
  3  4  2  0  0  0  0
  4 13  1  0  0  0  0
  5  4  1  0  0  0  0
  5 12  1  0  0  0  0
  6  5  2  0  0  0  0
  7  1  1  0  0  0  0
  8  2  1  0  0  0  0
  9 10  3  0  0  0  0
 11  6  1  0  0  0  0
M  RAD  1   3   2
M  END
