Coordinates from ORCA-job Ph-N2+-B3LYPG-aug-cc-pVDZ-scan-d09-49-n400
 OpenBabel09291715233D

 13 12  0  0  0  0  0  0  0  0999 V2000
   -2.0862    0.1023   -1.0940 C   0  0  0  0  0  0  0  0  0  0  0  0
   -0.6603    0.0031   -1.0018 C   0  0  0  0  0  0  0  0  0  0  0  0
   -0.3144    0.8451   -0.0273 C   0  0  0  0  0  0  0  0  0  0  0  0
   -0.7606    1.7215    0.8732 C   0  0  0  0  0  0  0  0  0  0  0  0
   -2.1822    1.7462    0.6996 C   0  0  0  0  0  0  0  0  0  0  0  0
   -2.8157    0.9539   -0.2608 C   0  0  0  0  0  0  0  0  0  0  0  0
   -2.5636   -0.5242   -1.8502 H   0  0  0  0  0  0  0  0  0  0  0  0
   -0.0467   -0.6422   -1.6246 H   0  0  0  0  0  0  0  0  0  0  0  0
    2.2762    0.7324    0.2145 N   0  0  0  0  0  0  0  0  0  0  0  0
    3.3737    0.6846    0.3168 N   0  0  0  0  0  0  0  0  0  0  0  0
   -3.8993    1.0010   -0.3620 H   0  0  0  0  0  0  0  0  0  0  0  0
   -2.7353    2.4175    1.3596 H   0  0  0  0  0  0  0  0  0  0  0  0
   -0.2194    2.3165    1.6038 H   0  0  0  0  0  0  0  0  0  0  0  0
  1  2  2  0  0  0  0
  1  6  1  0  0  0  0
  2  3  1  0  0  0  0
  3  4  2  0  0  0  0
  4 13  1  0  0  0  0
  5  4  1  0  0  0  0
  5 12  1  0  0  0  0
  6  5  2  0  0  0  0
  7  1  1  0  0  0  0
  8  2  1  0  0  0  0
  9 10  3  0  0  0  0
 11  6  1  0  0  0  0
M  RAD  1   3   2
M  END
