Coordinates from ORCA-job Ph-N2+-B3LYPG-aug-cc-pVDZ-scan-d09-49-n400
 OpenBabel09291715233D

 13 13  0  0  0  0  0  0  0  0999 V2000
   -1.9098    0.0896   -1.0831 C   0  0  0  0  0  0  0  0  0  0  0  0
   -0.5345    0.0160   -0.9698 C   0  0  0  0  0  0  0  0  0  0  0  0
    0.1237    0.8260    0.0136 C   0  0  0  0  0  0  0  0  0  0  0  0
   -0.6326    1.6975    0.8649 C   0  0  0  0  0  0  0  0  0  0  0  0
   -2.0063    1.7436    0.7216 C   0  0  0  0  0  0  0  0  0  0  0  0
   -2.6438    0.9464   -0.2448 C   0  0  0  0  0  0  0  0  0  0  0  0
   -2.4203   -0.5211   -1.8267 H   0  0  0  0  0  0  0  0  0  0  0  0
    0.0628   -0.6381   -1.6046 H   0  0  0  0  0  0  0  0  0  0  0  0
    1.3182    0.7740    0.1251 N   0  0  0  0  0  0  0  0  0  0  0  0
    2.4372    0.7254    0.2294 N   0  0  0  0  0  0  0  0  0  0  0  0
   -3.7285    0.9936   -0.3460 H   0  0  0  0  0  0  0  0  0  0  0  0
   -2.5908    2.4020    1.3629 H   0  0  0  0  0  0  0  0  0  0  0  0
   -0.1088    2.3028    1.6044 H   0  0  0  0  0  0  0  0  0  0  0  0
  1  2  2  0  0  0  0
  1  6  1  0  0  0  0
  2  3  1  0  0  0  0
  3  9  1  0  0  0  0
  3  4  2  0  0  0  0
  4 13  1  0  0  0  0
  5  4  1  0  0  0  0
  5 12  1  0  0  0  0
  6  5  2  0  0  0  0
  7  1  1  0  0  0  0
  8  2  1  0  0  0  0
  9 10  1  0  0  0  0
 11  6  1  0  0  0  0
M  RAD  2   9   2  10   3
M  END
