Coordinates from ORCA-job Ph-N2+-B3LYPG-aug-cc-pVDZ-scan-d09-49-n400
 OpenBabel09291715233D

 13 12  0  0  0  0  0  0  0  0999 V2000
   -2.0625    0.1010   -1.0922 C   0  0  0  0  0  0  0  0  0  0  0  0
   -0.6388    0.0030   -0.9989 C   0  0  0  0  0  0  0  0  0  0  0  0
   -0.2810    0.8436   -0.0242 C   0  0  0  0  0  0  0  0  0  0  0  0
   -0.7390    1.7197    0.8743 C   0  0  0  0  0  0  0  0  0  0  0  0
   -2.1585    1.7454    0.7022 C   0  0  0  0  0  0  0  0  0  0  0  0
   -2.7920    0.9529   -0.2586 C   0  0  0  0  0  0  0  0  0  0  0  0
   -2.5429   -0.5242   -1.8473 H   0  0  0  0  0  0  0  0  0  0  0  0
   -0.0268   -0.6427   -1.6223 H   0  0  0  0  0  0  0  0  0  0  0  0
    2.1500    0.7378    0.2027 N   0  0  0  0  0  0  0  0  0  0  0  0
    3.2473    0.6901    0.3050 N   0  0  0  0  0  0  0  0  0  0  0  0
   -3.8755    1.0000   -0.3598 H   0  0  0  0  0  0  0  0  0  0  0  0
   -2.7144    2.4157    1.3605 H   0  0  0  0  0  0  0  0  0  0  0  0
   -0.1995    2.3153    1.6053 H   0  0  0  0  0  0  0  0  0  0  0  0
  1  2  2  0  0  0  0
  1  6  1  0  0  0  0
  2  3  1  0  0  0  0
  3  4  2  0  0  0  0
  4 13  1  0  0  0  0
  5  4  1  0  0  0  0
  5 12  1  0  0  0  0
  6  5  2  0  0  0  0
  7  1  1  0  0  0  0
  8  2  1  0  0  0  0
  9 10  3  0  0  0  0
 11  6  1  0  0  0  0
M  RAD  1   3   2
M  END
