Coordinates from ORCA-job Ph-N2+-B3LYPG-aug-cc-pVDZ-scan-d09-49-n400
 OpenBabel09291715233D

 13 12  0  0  0  0  0  0  0  0999 V2000
   -2.2145    0.1081   -1.1058 C   0  0  0  0  0  0  0  0  0  0  0  0
   -0.7834    0.0067   -1.0151 C   0  0  0  0  0  0  0  0  0  0  0  0
   -0.4641    0.8516   -0.0412 C   0  0  0  0  0  0  0  0  0  0  0  0
   -0.8839    1.7286    0.8636 C   0  0  0  0  0  0  0  0  0  0  0  0
   -2.3104    1.7515    0.6874 C   0  0  0  0  0  0  0  0  0  0  0  0
   -2.9438    0.9595   -0.2728 C   0  0  0  0  0  0  0  0  0  0  0  0
   -2.6868   -0.5207   -1.8638 H   0  0  0  0  0  0  0  0  0  0  0  0
   -0.1670   -0.6382   -1.6371 H   0  0  0  0  0  0  0  0  0  0  0  0
    2.9741    0.7020    0.2796 N   0  0  0  0  0  0  0  0  0  0  0  0
    4.0722    0.6542    0.3819 N   0  0  0  0  0  0  0  0  0  0  0  0
   -4.0274    1.0066   -0.3740 H   0  0  0  0  0  0  0  0  0  0  0  0
   -2.8588    2.4248    1.3502 H   0  0  0  0  0  0  0  0  0  0  0  0
   -0.3399    2.3230    1.5940 H   0  0  0  0  0  0  0  0  0  0  0  0
  1  2  2  0  0  0  0
  1  6  1  0  0  0  0
  2  3  1  0  0  0  0
  3  4  2  0  0  0  0
  4 13  1  0  0  0  0
  5  4  1  0  0  0  0
  5 12  1  0  0  0  0
  6  5  2  0  0  0  0
  7  1  1  0  0  0  0
  8  2  1  0  0  0  0
  9 10  3  0  0  0  0
 11  6  1  0  0  0  0
M  RAD  1   3   2
M  END
