Coordinates from ORCA-job Ph-N2+-B3LYPG-aug-cc-pVDZ-scan-d09-49-n400
 OpenBabel09291715233D

 13 12  0  0  0  0  0  0  0  0999 V2000
   -2.0272    0.0992   -1.0892 C   0  0  0  0  0  0  0  0  0  0  0  0
   -0.6118    0.0047   -0.9932 C   0  0  0  0  0  0  0  0  0  0  0  0
   -0.2084    0.8405   -0.0174 C   0  0  0  0  0  0  0  0  0  0  0  0
   -0.7117    1.7156    0.8737 C   0  0  0  0  0  0  0  0  0  0  0  0
   -2.1232    1.7442    0.7058 C   0  0  0  0  0  0  0  0  0  0  0  0
   -2.7569    0.9513   -0.2553 C   0  0  0  0  0  0  0  0  0  0  0  0
   -2.5140   -0.5229   -1.8418 H   0  0  0  0  0  0  0  0  0  0  0  0
   -0.0031   -0.6422   -1.6185 H   0  0  0  0  0  0  0  0  0  0  0  0
    1.9633    0.7460    0.1853 N   0  0  0  0  0  0  0  0  0  0  0  0
    3.0604    0.6982    0.2876 N   0  0  0  0  0  0  0  0  0  0  0  0
   -3.8404    0.9985   -0.3565 H   0  0  0  0  0  0  0  0  0  0  0  0
   -2.6853    2.4119    1.3605 H   0  0  0  0  0  0  0  0  0  0  0  0
   -0.1755    2.3128    1.6059 H   0  0  0  0  0  0  0  0  0  0  0  0
  1  2  2  0  0  0  0
  1  6  1  0  0  0  0
  2  3  1  0  0  0  0
  3  4  2  0  0  0  0
  4 13  1  0  0  0  0
  5  4  1  0  0  0  0
  5 12  1  0  0  0  0
  6  5  2  0  0  0  0
  7  1  1  0  0  0  0
  8  2  1  0  0  0  0
  9 10  3  0  0  0  0
 11  6  1  0  0  0  0
M  RAD  1   3   2
M  END
