Coordinates from ORCA-job Ph-N2+-B3LYPG-aug-cc-pVDZ-scan-d09-49-n400
 OpenBabel09291715233D

 13 13  0  0  0  0  0  0  0  0999 V2000
   -1.9766    0.0948   -1.0868 C   0  0  0  0  0  0  0  0  0  0  0  0
   -0.5772    0.0095   -0.9830 C   0  0  0  0  0  0  0  0  0  0  0  0
   -0.0839    0.8350   -0.0058 C   0  0  0  0  0  0  0  0  0  0  0  0
   -0.6763    1.7078    0.8700 C   0  0  0  0  0  0  0  0  0  0  0  0
   -2.0728    1.7441    0.7128 C   0  0  0  0  0  0  0  0  0  0  0  0
   -2.7063    0.9491   -0.2506 C   0  0  0  0  0  0  0  0  0  0  0  0
   -2.4791   -0.5197   -1.8333 H   0  0  0  0  0  0  0  0  0  0  0  0
    0.0275   -0.6395   -1.6112 H   0  0  0  0  0  0  0  0  0  0  0  0
    1.6989    0.7575    0.1606 N   0  0  0  0  0  0  0  0  0  0  0  0
    2.7964    0.7097    0.2630 N   0  0  0  0  0  0  0  0  0  0  0  0
   -3.7900    0.9963   -0.3518 H   0  0  0  0  0  0  0  0  0  0  0  0
   -2.6498    2.4056    1.3586 H   0  0  0  0  0  0  0  0  0  0  0  0
   -0.1444    2.3074    1.6043 H   0  0  0  0  0  0  0  0  0  0  0  0
  1  2  2  0  0  0  0
  1  6  1  0  0  0  0
  2  3  1  0  0  0  0
  3  9  1  0  0  0  0
  3  4  2  0  0  0  0
  4 13  1  0  0  0  0
  5  4  1  0  0  0  0
  5 12  1  0  0  0  0
  6  5  2  0  0  0  0
  7  1  1  0  0  0  0
  8  2  1  0  0  0  0
  9 10  1  0  0  0  0
 11  6  1  0  0  0  0
M  RAD  2   9   2  10   3
M  END
