Coordinates from ORCA-job Ph-N2+-B3LYPG-aug-cc-pVDZ-scan-d09-49-n400
 OpenBabel09291715233D

 13 12  0  0  0  0  0  0  0  0999 V2000
   -2.2929    0.1117   -1.1129 C   0  0  0  0  0  0  0  0  0  0  0  0
   -0.8614    0.0097   -1.0229 C   0  0  0  0  0  0  0  0  0  0  0  0
   -0.5415    0.8550   -0.0484 C   0  0  0  0  0  0  0  0  0  0  0  0
   -0.9621    1.7325    0.8569 C   0  0  0  0  0  0  0  0  0  0  0  0
   -2.3889    1.7548    0.6799 C   0  0  0  0  0  0  0  0  0  0  0  0
   -3.0220    0.9629   -0.2801 C   0  0  0  0  0  0  0  0  0  0  0  0
   -2.7648   -0.5174   -1.8711 H   0  0  0  0  0  0  0  0  0  0  0  0
   -0.2465   -0.6359   -1.6459 H   0  0  0  0  0  0  0  0  0  0  0  0
    3.4053    0.6831    0.3198 N   0  0  0  0  0  0  0  0  0  0  0  0
    4.5035    0.6353    0.4220 N   0  0  0  0  0  0  0  0  0  0  0  0
   -4.1057    1.0100   -0.3813 H   0  0  0  0  0  0  0  0  0  0  0  0
   -2.9369    2.4282    1.3429 H   0  0  0  0  0  0  0  0  0  0  0  0
   -0.4197    2.3278    1.5880 H   0  0  0  0  0  0  0  0  0  0  0  0
  1  2  2  0  0  0  0
  1  6  1  0  0  0  0
  2  3  1  0  0  0  0
  3  4  2  0  0  0  0
  4 13  1  0  0  0  0
  5  4  1  0  0  0  0
  5 12  1  0  0  0  0
  6  5  2  0  0  0  0
  7  1  1  0  0  0  0
  8  2  1  0  0  0  0
  9 10  3  0  0  0  0
 11  6  1  0  0  0  0
M  RAD  1   3   2
M  END
