Coordinates from ORCA-job Ph-N2+-B3LYPG-aug-cc-pVDZ-scan-d09-49-n400
 OpenBabel09291715233D

 13 12  0  0  0  0  0  0  0  0999 V2000
   -2.0980    0.1029   -1.0951 C   0  0  0  0  0  0  0  0  0  0  0  0
   -0.6711    0.0032   -1.0032 C   0  0  0  0  0  0  0  0  0  0  0  0
   -0.3307    0.8458   -0.0288 C   0  0  0  0  0  0  0  0  0  0  0  0
   -0.7714    1.7223    0.8726 C   0  0  0  0  0  0  0  0  0  0  0  0
   -2.1940    1.7466    0.6985 C   0  0  0  0  0  0  0  0  0  0  0  0
   -2.8275    0.9544   -0.2619 C   0  0  0  0  0  0  0  0  0  0  0  0
   -2.5744   -0.5241   -1.8517 H   0  0  0  0  0  0  0  0  0  0  0  0
   -0.0568   -0.6419   -1.6257 H   0  0  0  0  0  0  0  0  0  0  0  0
    2.3396    0.7296    0.2204 N   0  0  0  0  0  0  0  0  0  0  0  0
    3.4372    0.6818    0.3227 N   0  0  0  0  0  0  0  0  0  0  0  0
   -3.9110    1.0016   -0.3631 H   0  0  0  0  0  0  0  0  0  0  0  0
   -2.7461    2.4184    1.3590 H   0  0  0  0  0  0  0  0  0  0  0  0
   -0.2295    2.3171    1.6031 H   0  0  0  0  0  0  0  0  0  0  0  0
  1  2  2  0  0  0  0
  1  6  1  0  0  0  0
  2  3  1  0  0  0  0
  3  4  2  0  0  0  0
  4 13  1  0  0  0  0
  5  4  1  0  0  0  0
  5 12  1  0  0  0  0
  6  5  2  0  0  0  0
  7  1  1  0  0  0  0
  8  2  1  0  0  0  0
  9 10  3  0  0  0  0
 11  6  1  0  0  0  0
M  RAD  1   3   2
M  END
