Coordinates from ORCA-job Ph-N2+-B3LYPG-aug-cc-pVDZ-scan-d09-49-n400
 OpenBabel09291715233D

 13 13  0  0  0  0  0  0  0  0999 V2000
   -1.9335    0.0908   -1.0852 C   0  0  0  0  0  0  0  0  0  0  0  0
   -0.5504    0.0151   -0.9731 C   0  0  0  0  0  0  0  0  0  0  0  0
    0.0483    0.8293    0.0065 C   0  0  0  0  0  0  0  0  0  0  0  0
   -0.6487    1.6998    0.8652 C   0  0  0  0  0  0  0  0  0  0  0  0
   -2.0300    1.7445    0.7192 C   0  0  0  0  0  0  0  0  0  0  0  0
   -2.6649    0.9473   -0.2467 C   0  0  0  0  0  0  0  0  0  0  0  0
   -2.4447   -0.5195   -1.8283 H   0  0  0  0  0  0  0  0  0  0  0  0
    0.0478   -0.6378   -1.6065 H   0  0  0  0  0  0  0  0  0  0  0  0
    1.4621    0.7678    0.1385 N   0  0  0  0  0  0  0  0  0  0  0  0
    2.5685    0.7196    0.2417 N   0  0  0  0  0  0  0  0  0  0  0  0
   -3.7493    0.9945   -0.3480 H   0  0  0  0  0  0  0  0  0  0  0  0
   -2.6152    2.4025    1.3600 H   0  0  0  0  0  0  0  0  0  0  0  0
   -0.1239    2.3039    1.6034 H   0  0  0  0  0  0  0  0  0  0  0  0
  1  2  2  0  0  0  0
  1  6  1  0  0  0  0
  2  3  1  0  0  0  0
  3  9  1  0  0  0  0
  3  4  2  0  0  0  0
  4 13  1  0  0  0  0
  5  4  1  0  0  0  0
  5 12  1  0  0  0  0
  6  5  2  0  0  0  0
  7  1  1  0  0  0  0
  8  2  1  0  0  0  0
  9 10  1  0  0  0  0
 11  6  1  0  0  0  0
M  RAD  2   9   2  10   3
M  END
