Coordinates from ORCA-job Ph-N2+-B3LYPG-aug-cc-pVDZ-scan-d09-49-n400
 OpenBabel09291715233D

 13 12  0  0  0  0  0  0  0  0999 V2000
   -2.2879    0.1114   -1.1126 C   0  0  0  0  0  0  0  0  0  0  0  0
   -0.8563    0.0097   -1.0221 C   0  0  0  0  0  0  0  0  0  0  0  0
   -0.5392    0.8549   -0.0482 C   0  0  0  0  0  0  0  0  0  0  0  0
   -0.9569    1.7320    0.8571 C   0  0  0  0  0  0  0  0  0  0  0  0
   -2.3839    1.7547    0.6805 C   0  0  0  0  0  0  0  0  0  0  0  0
   -3.0172    0.9627   -0.2797 C   0  0  0  0  0  0  0  0  0  0  0  0
   -2.7596   -0.5178   -1.8709 H   0  0  0  0  0  0  0  0  0  0  0  0
   -0.2402   -0.6354   -1.6444 H   0  0  0  0  0  0  0  0  0  0  0  0
    3.3777    0.6843    0.3172 N   0  0  0  0  0  0  0  0  0  0  0  0
    4.4759    0.6365    0.4194 N   0  0  0  0  0  0  0  0  0  0  0  0
   -4.1009    1.0098   -0.3809 H   0  0  0  0  0  0  0  0  0  0  0  0
   -2.9317    2.4282    1.3436 H   0  0  0  0  0  0  0  0  0  0  0  0
   -0.4133    2.3267    1.5877 H   0  0  0  0  0  0  0  0  0  0  0  0
  1  2  2  0  0  0  0
  1  6  1  0  0  0  0
  2  3  1  0  0  0  0
  3  4  2  0  0  0  0
  4 13  1  0  0  0  0
  5  4  1  0  0  0  0
  5 12  1  0  0  0  0
  6  5  2  0  0  0  0
  7  1  1  0  0  0  0
  8  2  1  0  0  0  0
  9 10  3  0  0  0  0
 11  6  1  0  0  0  0
M  RAD  1   3   2
M  END
