Coordinates from ORCA-job Ph-N2+-B3LYPG-aug-cc-pVDZ-scan-d09-49-n400
 OpenBabel09291715233D

 13 12  0  0  0  0  0  0  0  0999 V2000
   -2.2114    0.1080   -1.1055 C   0  0  0  0  0  0  0  0  0  0  0  0
   -0.7803    0.0066   -1.0149 C   0  0  0  0  0  0  0  0  0  0  0  0
   -0.4610    0.8515   -0.0409 C   0  0  0  0  0  0  0  0  0  0  0  0
   -0.8809    1.7285    0.8640 C   0  0  0  0  0  0  0  0  0  0  0  0
   -2.3073    1.7514    0.6877 C   0  0  0  0  0  0  0  0  0  0  0  0
   -2.9407    0.9593   -0.2725 C   0  0  0  0  0  0  0  0  0  0  0  0
   -2.6838   -0.5208   -1.8635 H   0  0  0  0  0  0  0  0  0  0  0  0
   -0.1639   -0.6383   -1.6368 H   0  0  0  0  0  0  0  0  0  0  0  0
    2.9573    0.7027    0.2780 N   0  0  0  0  0  0  0  0  0  0  0  0
    4.0553    0.6549    0.3803 N   0  0  0  0  0  0  0  0  0  0  0  0
   -4.0243    1.0065   -0.3737 H   0  0  0  0  0  0  0  0  0  0  0  0
   -2.8558    2.4246    1.3504 H   0  0  0  0  0  0  0  0  0  0  0  0
   -0.3368    2.3229    1.5943 H   0  0  0  0  0  0  0  0  0  0  0  0
  1  2  2  0  0  0  0
  1  6  1  0  0  0  0
  2  3  1  0  0  0  0
  3  4  2  0  0  0  0
  4 13  1  0  0  0  0
  5  4  1  0  0  0  0
  5 12  1  0  0  0  0
  6  5  2  0  0  0  0
  7  1  1  0  0  0  0
  8  2  1  0  0  0  0
  9 10  3  0  0  0  0
 11  6  1  0  0  0  0
M  RAD  1   3   2
M  END
