Coordinates from ORCA-job Ph-N2+-B3LYPG-aug-cc-pVDZ-scan-d09-49-n400
 OpenBabel09291715233D

 13 13  0  0  0  0  0  0  0  0999 V2000
   -1.9610    0.0932   -1.0864 C   0  0  0  0  0  0  0  0  0  0  0  0
   -0.5677    0.0118   -0.9792 C   0  0  0  0  0  0  0  0  0  0  0  0
   -0.0374    0.8330   -0.0015 C   0  0  0  0  0  0  0  0  0  0  0  0
   -0.6664    1.7047    0.8681 C   0  0  0  0  0  0  0  0  0  0  0  0
   -2.0573    1.7444    0.7153 C   0  0  0  0  0  0  0  0  0  0  0  0
   -2.6910    0.9485   -0.2492 C   0  0  0  0  0  0  0  0  0  0  0  0
   -2.4681   -0.5191   -1.8311 H   0  0  0  0  0  0  0  0  0  0  0  0
    0.0349   -0.6385   -1.6091 H   0  0  0  0  0  0  0  0  0  0  0  0
    1.6158    0.7611    0.1528 N   0  0  0  0  0  0  0  0  0  0  0  0
    2.7149    0.7133    0.2554 N   0  0  0  0  0  0  0  0  0  0  0  0
   -3.7749    0.9956   -0.3504 H   0  0  0  0  0  0  0  0  0  0  0  0
   -2.6387    2.4040    1.3584 H   0  0  0  0  0  0  0  0  0  0  0  0
   -0.1369    2.3057    1.6036 H   0  0  0  0  0  0  0  0  0  0  0  0
  1  2  2  0  0  0  0
  1  6  1  0  0  0  0
  2  3  1  0  0  0  0
  3  9  1  0  0  0  0
  3  4  2  0  0  0  0
  4 13  1  0  0  0  0
  5  4  1  0  0  0  0
  5 12  1  0  0  0  0
  6  5  2  0  0  0  0
  7  1  1  0  0  0  0
  8  2  1  0  0  0  0
  9 10  1  0  0  0  0
 11  6  1  0  0  0  0
M  RAD  2   9   2  10   3
M  END
