Coordinates from ORCA-job Ph-N2+-B3LYPG-aug-cc-pVDZ-scan-d09-49-n400
 OpenBabel09291715233D

 13 12  0  0  0  0  0  0  0  0999 V2000
   -2.0969    0.1029   -1.0949 C   0  0  0  0  0  0  0  0  0  0  0  0
   -0.6701    0.0028   -1.0035 C   0  0  0  0  0  0  0  0  0  0  0  0
   -0.3268    0.8456   -0.0285 C   0  0  0  0  0  0  0  0  0  0  0  0
   -0.7705    1.7226    0.8731 C   0  0  0  0  0  0  0  0  0  0  0  0
   -2.1928    1.7465    0.6985 C   0  0  0  0  0  0  0  0  0  0  0  0
   -2.8261    0.9544   -0.2618 C   0  0  0  0  0  0  0  0  0  0  0  0
   -2.5736   -0.5239   -1.8514 H   0  0  0  0  0  0  0  0  0  0  0  0
   -0.0568   -0.6427   -1.6265 H   0  0  0  0  0  0  0  0  0  0  0  0
    2.3335    0.7299    0.2198 N   0  0  0  0  0  0  0  0  0  0  0  0
    3.4311    0.6821    0.3222 N   0  0  0  0  0  0  0  0  0  0  0  0
   -3.9097    1.0015   -0.3630 H   0  0  0  0  0  0  0  0  0  0  0  0
   -2.7453    2.4181    1.3589 H   0  0  0  0  0  0  0  0  0  0  0  0
   -0.2296    2.3179    1.6039 H   0  0  0  0  0  0  0  0  0  0  0  0
  1  2  2  0  0  0  0
  1  6  1  0  0  0  0
  2  3  1  0  0  0  0
  3  4  2  0  0  0  0
  4 13  1  0  0  0  0
  5  4  1  0  0  0  0
  5 12  1  0  0  0  0
  6  5  2  0  0  0  0
  7  1  1  0  0  0  0
  8  2  1  0  0  0  0
  9 10  3  0  0  0  0
 11  6  1  0  0  0  0
M  RAD  1   3   2
M  END
