Coordinates from ORCA-job Ph-N2+-B3LYPG-aug-cc-pVDZ-scan-d09-49-n400
 OpenBabel09291715233D

 13 12  0  0  0  0  0  0  0  0999 V2000
   -2.4217    0.1174   -1.1249 C   0  0  0  0  0  0  0  0  0  0  0  0
   -0.9899    0.0152   -1.0349 C   0  0  0  0  0  0  0  0  0  0  0  0
   -0.6708    0.8607   -0.0604 C   0  0  0  0  0  0  0  0  0  0  0  0
   -1.0908    1.7382    0.8451 C   0  0  0  0  0  0  0  0  0  0  0  0
   -2.5178    1.7604    0.6679 C   0  0  0  0  0  0  0  0  0  0  0  0
   -3.1508    0.9685   -0.2922 C   0  0  0  0  0  0  0  0  0  0  0  0
   -2.8931   -0.5119   -1.8833 H   0  0  0  0  0  0  0  0  0  0  0  0
   -0.3755   -0.6307   -1.6582 H   0  0  0  0  0  0  0  0  0  0  0  0
    4.1137    0.6522    0.3858 N   0  0  0  0  0  0  0  0  0  0  0  0
    5.2121    0.6043    0.4878 N   0  0  0  0  0  0  0  0  0  0  0  0
   -4.2345    1.0156   -0.3935 H   0  0  0  0  0  0  0  0  0  0  0  0
   -3.0655    2.4340    1.3310 H   0  0  0  0  0  0  0  0  0  0  0  0
   -0.5490    2.3339    1.5765 H   0  0  0  0  0  0  0  0  0  0  0  0
  1  2  2  0  0  0  0
  1  6  1  0  0  0  0
  2  3  1  0  0  0  0
  3  4  2  0  0  0  0
  4 13  1  0  0  0  0
  5  4  1  0  0  0  0
  5 12  1  0  0  0  0
  6  5  2  0  0  0  0
  7  1  1  0  0  0  0
  8  2  1  0  0  0  0
  9 10  3  0  0  0  0
 11  6  1  0  0  0  0
M  RAD  1   3   2
M  END
