Coordinates from ORCA-job Ph-N2+-B3LYPG-aug-cc-pVDZ-scan-d09-49-n400
 OpenBabel09291715233D

 13 12  0  0  0  0  0  0  0  0999 V2000
   -2.0396    0.1000   -1.0900 C   0  0  0  0  0  0  0  0  0  0  0  0
   -0.6215    0.0042   -0.9952 C   0  0  0  0  0  0  0  0  0  0  0  0
   -0.2329    0.8415   -0.0197 C   0  0  0  0  0  0  0  0  0  0  0  0
   -0.7215    1.7170    0.8738 C   0  0  0  0  0  0  0  0  0  0  0  0
   -2.1356    1.7445    0.7043 C   0  0  0  0  0  0  0  0  0  0  0  0
   -2.7693    0.9519   -0.2565 C   0  0  0  0  0  0  0  0  0  0  0  0
   -2.5236   -0.5234   -1.8438 H   0  0  0  0  0  0  0  0  0  0  0  0
   -0.0119   -0.6425   -1.6200 H   0  0  0  0  0  0  0  0  0  0  0  0
    2.0286    0.7431    0.1914 N   0  0  0  0  0  0  0  0  0  0  0  0
    3.1257    0.6954    0.2937 N   0  0  0  0  0  0  0  0  0  0  0  0
   -3.8528    0.9990   -0.3576 H   0  0  0  0  0  0  0  0  0  0  0  0
   -2.6949    2.4133    1.3607 H   0  0  0  0  0  0  0  0  0  0  0  0
   -0.1844    2.3138    1.6057 H   0  0  0  0  0  0  0  0  0  0  0  0
  1  2  2  0  0  0  0
  1  6  1  0  0  0  0
  2  3  1  0  0  0  0
  3  4  2  0  0  0  0
  4 13  1  0  0  0  0
  5  4  1  0  0  0  0
  5 12  1  0  0  0  0
  6  5  2  0  0  0  0
  7  1  1  0  0  0  0
  8  2  1  0  0  0  0
  9 10  3  0  0  0  0
 11  6  1  0  0  0  0
M  RAD  1   3   2
M  END
