Coordinates from ORCA-job Ph-N2+-B3LYPG-aug-cc-pVDZ-scan-d09-49-n400
 OpenBabel09291715233D

 13 13  0  0  0  0  0  0  0  0999 V2000
   -1.9778    0.0949   -1.0868 C   0  0  0  0  0  0  0  0  0  0  0  0
   -0.5779    0.0094   -0.9833 C   0  0  0  0  0  0  0  0  0  0  0  0
   -0.0874    0.8352   -0.0062 C   0  0  0  0  0  0  0  0  0  0  0  0
   -0.6770    1.7080    0.8702 C   0  0  0  0  0  0  0  0  0  0  0  0
   -2.0740    1.7441    0.7127 C   0  0  0  0  0  0  0  0  0  0  0  0
   -2.7075    0.9492   -0.2507 C   0  0  0  0  0  0  0  0  0  0  0  0
   -2.4800   -0.5198   -1.8335 H   0  0  0  0  0  0  0  0  0  0  0  0
    0.0269   -0.6396   -1.6114 H   0  0  0  0  0  0  0  0  0  0  0  0
    1.7053    0.7572    0.1612 N   0  0  0  0  0  0  0  0  0  0  0  0
    2.8027    0.7094    0.2636 N   0  0  0  0  0  0  0  0  0  0  0  0
   -3.7912    0.9963   -0.3519 H   0  0  0  0  0  0  0  0  0  0  0  0
   -2.6507    2.4057    1.3586 H   0  0  0  0  0  0  0  0  0  0  0  0
   -0.1451    2.3075    1.6044 H   0  0  0  0  0  0  0  0  0  0  0  0
  1  2  2  0  0  0  0
  1  6  1  0  0  0  0
  2  3  1  0  0  0  0
  3  9  1  0  0  0  0
  3  4  2  0  0  0  0
  4 13  1  0  0  0  0
  5  4  1  0  0  0  0
  5 12  1  0  0  0  0
  6  5  2  0  0  0  0
  7  1  1  0  0  0  0
  8  2  1  0  0  0  0
  9 10  1  0  0  0  0
 11  6  1  0  0  0  0
M  RAD  2   9   2  10   3
M  END
