Coordinates from ORCA-job Ph-N2+-B3LYPG-aug-cc-pVDZ-scan-d09-49-n400
 OpenBabel09291715233D

 13 13  0  0  0  0  0  0  0  0999 V2000
   -1.9669    0.0938   -1.0866 C   0  0  0  0  0  0  0  0  0  0  0  0
   -0.5713    0.0109   -0.9807 C   0  0  0  0  0  0  0  0  0  0  0  0
   -0.0554    0.8338   -0.0032 C   0  0  0  0  0  0  0  0  0  0  0  0
   -0.6702    1.7059    0.8688 C   0  0  0  0  0  0  0  0  0  0  0  0
   -2.0632    1.7443    0.7144 C   0  0  0  0  0  0  0  0  0  0  0  0
   -2.6968    0.9487   -0.2497 C   0  0  0  0  0  0  0  0  0  0  0  0
   -2.4725   -0.5192   -1.8319 H   0  0  0  0  0  0  0  0  0  0  0  0
    0.0322   -0.6389   -1.6098 H   0  0  0  0  0  0  0  0  0  0  0  0
    1.6476    0.7597    0.1558 N   0  0  0  0  0  0  0  0  0  0  0  0
    2.7459    0.7119    0.2583 N   0  0  0  0  0  0  0  0  0  0  0  0
   -3.7806    0.9959   -0.3509 H   0  0  0  0  0  0  0  0  0  0  0  0
   -2.6431    2.4046    1.3584 H   0  0  0  0  0  0  0  0  0  0  0  0
   -0.1397    2.3063    1.6038 H   0  0  0  0  0  0  0  0  0  0  0  0
  1  2  2  0  0  0  0
  1  6  1  0  0  0  0
  2  3  1  0  0  0  0
  3  9  1  0  0  0  0
  3  4  2  0  0  0  0
  4 13  1  0  0  0  0
  5  4  1  0  0  0  0
  5 12  1  0  0  0  0
  6  5  2  0  0  0  0
  7  1  1  0  0  0  0
  8  2  1  0  0  0  0
  9 10  1  0  0  0  0
 11  6  1  0  0  0  0
M  RAD  2   9   2  10   3
M  END
