Coordinates from ORCA-job Ph-N2+-B3LYPG-aug-cc-pVDZ-scan-d09-49-n400
 OpenBabel09291715233D

 13 12  0  0  0  0  0  0  0  0999 V2000
   -2.2561    0.1101   -1.1095 C   0  0  0  0  0  0  0  0  0  0  0  0
   -0.8249    0.0081   -1.0195 C   0  0  0  0  0  0  0  0  0  0  0  0
   -0.5043    0.8534   -0.0450 C   0  0  0  0  0  0  0  0  0  0  0  0
   -0.9255    1.7308    0.8603 C   0  0  0  0  0  0  0  0  0  0  0  0
   -2.3521    1.7532    0.6834 C   0  0  0  0  0  0  0  0  0  0  0  0
   -2.9853    0.9613   -0.2767 C   0  0  0  0  0  0  0  0  0  0  0  0
   -2.7283   -0.5189   -1.8676 H   0  0  0  0  0  0  0  0  0  0  0  0
   -0.2097   -0.6373   -1.6422 H   0  0  0  0  0  0  0  0  0  0  0  0
    3.2032    0.6920    0.3009 N   0  0  0  0  0  0  0  0  0  0  0  0
    4.3013    0.6441    0.4032 N   0  0  0  0  0  0  0  0  0  0  0  0
   -4.0690    1.0084   -0.3779 H   0  0  0  0  0  0  0  0  0  0  0  0
   -2.9003    2.4265    1.3462 H   0  0  0  0  0  0  0  0  0  0  0  0
   -0.3828    2.3259    1.5912 H   0  0  0  0  0  0  0  0  0  0  0  0
  1  2  2  0  0  0  0
  1  6  1  0  0  0  0
  2  3  1  0  0  0  0
  3  4  2  0  0  0  0
  4 13  1  0  0  0  0
  5  4  1  0  0  0  0
  5 12  1  0  0  0  0
  6  5  2  0  0  0  0
  7  1  1  0  0  0  0
  8  2  1  0  0  0  0
  9 10  3  0  0  0  0
 11  6  1  0  0  0  0
M  RAD  1   3   2
M  END
