Coordinates from ORCA-job Ph-N2+-B3LYPG-aug-cc-pVDZ-scan-d09-49-n400
 OpenBabel09291715233D

 13 12  0  0  0  0  0  0  0  0999 V2000
   -2.2573    0.1100   -1.1097 C   0  0  0  0  0  0  0  0  0  0  0  0
   -0.8258    0.0085   -1.0192 C   0  0  0  0  0  0  0  0  0  0  0  0
   -0.5081    0.8535   -0.0453 C   0  0  0  0  0  0  0  0  0  0  0  0
   -0.9264    1.7306    0.8599 C   0  0  0  0  0  0  0  0  0  0  0  0
   -2.3533    1.7534    0.6834 C   0  0  0  0  0  0  0  0  0  0  0  0
   -2.9866    0.9613   -0.2768 C   0  0  0  0  0  0  0  0  0  0  0  0
   -2.7292   -0.5190   -1.8680 H   0  0  0  0  0  0  0  0  0  0  0  0
   -0.2096   -0.6366   -1.6414 H   0  0  0  0  0  0  0  0  0  0  0  0
    3.2093    0.6917    0.3015 N   0  0  0  0  0  0  0  0  0  0  0  0
    4.3074    0.6439    0.4037 N   0  0  0  0  0  0  0  0  0  0  0  0
   -4.0702    1.0085   -0.3780 H   0  0  0  0  0  0  0  0  0  0  0  0
   -2.9012    2.4268    1.3464 H   0  0  0  0  0  0  0  0  0  0  0  0
   -0.3826    2.3252    1.5903 H   0  0  0  0  0  0  0  0  0  0  0  0
  1  2  2  0  0  0  0
  1  6  1  0  0  0  0
  2  3  1  0  0  0  0
  3  4  2  0  0  0  0
  4 13  1  0  0  0  0
  5  4  1  0  0  0  0
  5 12  1  0  0  0  0
  6  5  2  0  0  0  0
  7  1  1  0  0  0  0
  8  2  1  0  0  0  0
  9 10  3  0  0  0  0
 11  6  1  0  0  0  0
M  RAD  1   3   2
M  END
