Coordinates from ORCA-job Ph-N2+-B3LYPG-aug-cc-pVDZ-scan-d09-49-n400
 OpenBabel09291715233D

 13 13  0  0  0  0  0  0  0  0999 V2000
   -1.9049    0.0894   -1.0826 C   0  0  0  0  0  0  0  0  0  0  0  0
   -0.5314    0.0159   -0.9695 C   0  0  0  0  0  0  0  0  0  0  0  0
    0.1411    0.8250    0.0154 C   0  0  0  0  0  0  0  0  0  0  0  0
   -0.6295    1.6974    0.8652 C   0  0  0  0  0  0  0  0  0  0  0  0
   -2.0014    1.7433    0.7220 C   0  0  0  0  0  0  0  0  0  0  0  0
   -2.6397    0.9462   -0.2444 C   0  0  0  0  0  0  0  0  0  0  0  0
   -2.4148   -0.5215   -1.8264 H   0  0  0  0  0  0  0  0  0  0  0  0
    0.0669   -0.6380   -1.6041 H   0  0  0  0  0  0  0  0  0  0  0  0
    1.2857    0.7754    0.1221 N   0  0  0  0  0  0  0  0  0  0  0  0
    2.4087    0.7268    0.2266 N   0  0  0  0  0  0  0  0  0  0  0  0
   -3.7244    0.9935   -0.3457 H   0  0  0  0  0  0  0  0  0  0  0  0
   -2.5854    2.4020    1.3636 H   0  0  0  0  0  0  0  0  0  0  0  0
   -0.1047    2.3025    1.6045 H   0  0  0  0  0  0  0  0  0  0  0  0
  1  2  2  0  0  0  0
  1  6  1  0  0  0  0
  2  3  1  0  0  0  0
  3  9  1  0  0  0  0
  3  4  2  0  0  0  0
  4 13  1  0  0  0  0
  5  4  1  0  0  0  0
  5 12  1  0  0  0  0
  6  5  2  0  0  0  0
  7  1  1  0  0  0  0
  8  2  1  0  0  0  0
  9 10  1  0  0  0  0
 11  6  1  0  0  0  0
M  RAD  2   9   2  10   3
M  END
