Coordinates from ORCA-job Ph-N2+-B3LYPG-aug-cc-pVDZ-scan-d09-49-n400
 OpenBabel09291715233D

 13 12  0  0  0  0  0  0  0  0999 V2000
   -2.2408    0.1094   -1.1081 C   0  0  0  0  0  0  0  0  0  0  0  0
   -0.8097    0.0075   -1.0180 C   0  0  0  0  0  0  0  0  0  0  0  0
   -0.4887    0.8527   -0.0435 C   0  0  0  0  0  0  0  0  0  0  0  0
   -0.9103    1.7301    0.8616 C   0  0  0  0  0  0  0  0  0  0  0  0
   -2.3368    1.7525    0.6848 C   0  0  0  0  0  0  0  0  0  0  0  0
   -2.9700    0.9606   -0.2752 C   0  0  0  0  0  0  0  0  0  0  0  0
   -2.7131   -0.5195   -1.8662 H   0  0  0  0  0  0  0  0  0  0  0  0
   -0.1944   -0.6379   -1.6407 H   0  0  0  0  0  0  0  0  0  0  0  0
    3.1191    0.6956    0.2931 N   0  0  0  0  0  0  0  0  0  0  0  0
    4.2172    0.6478    0.3954 N   0  0  0  0  0  0  0  0  0  0  0  0
   -4.0537    1.0078   -0.3764 H   0  0  0  0  0  0  0  0  0  0  0  0
   -2.8851    2.4258    1.3476 H   0  0  0  0  0  0  0  0  0  0  0  0
   -0.3675    2.3252    1.5925 H   0  0  0  0  0  0  0  0  0  0  0  0
  1  2  2  0  0  0  0
  1  6  1  0  0  0  0
  2  3  1  0  0  0  0
  3  4  2  0  0  0  0
  4 13  1  0  0  0  0
  5  4  1  0  0  0  0
  5 12  1  0  0  0  0
  6  5  2  0  0  0  0
  7  1  1  0  0  0  0
  8  2  1  0  0  0  0
  9 10  3  0  0  0  0
 11  6  1  0  0  0  0
M  RAD  1   3   2
M  END
