Coordinates from ORCA-job Ph-N2+-B3LYPG-aug-cc-pVDZ-scan-d09-49-n400
 OpenBabel09291715233D

 13 12  0  0  0  0  0  0  0  0999 V2000
   -2.3186    0.1127   -1.1154 C   0  0  0  0  0  0  0  0  0  0  0  0
   -0.8869    0.0110   -1.0250 C   0  0  0  0  0  0  0  0  0  0  0  0
   -0.5702    0.8562   -0.0511 C   0  0  0  0  0  0  0  0  0  0  0  0
   -0.9875    1.7334    0.8543 C   0  0  0  0  0  0  0  0  0  0  0  0
   -2.4146    1.7560    0.6777 C   0  0  0  0  0  0  0  0  0  0  0  0
   -3.0478    0.9640   -0.2825 C   0  0  0  0  0  0  0  0  0  0  0  0
   -2.7901   -0.5165   -1.8738 H   0  0  0  0  0  0  0  0  0  0  0  0
   -0.2709   -0.6342   -1.6474 H   0  0  0  0  0  0  0  0  0  0  0  0
    3.5462    0.6770    0.3329 N   0  0  0  0  0  0  0  0  0  0  0  0
    4.6445    0.6291    0.4351 N   0  0  0  0  0  0  0  0  0  0  0  0
   -4.1315    1.0111   -0.3838 H   0  0  0  0  0  0  0  0  0  0  0  0
   -2.9623    2.4296    1.3408 H   0  0  0  0  0  0  0  0  0  0  0  0
   -0.4440    2.3282    1.5850 H   0  0  0  0  0  0  0  0  0  0  0  0
  1  2  2  0  0  0  0
  1  6  1  0  0  0  0
  2  3  1  0  0  0  0
  3  4  2  0  0  0  0
  4 13  1  0  0  0  0
  5  4  1  0  0  0  0
  5 12  1  0  0  0  0
  6  5  2  0  0  0  0
  7  1  1  0  0  0  0
  8  2  1  0  0  0  0
  9 10  3  0  0  0  0
 11  6  1  0  0  0  0
M  RAD  1   3   2
M  END
