Coordinates from ORCA-job Ph-N2+-B3LYPG-aug-cc-pVDZ-scan-d09-49-n400
 OpenBabel09291715233D

 13 12  0  0  0  0  0  0  0  0999 V2000
   -2.1748    0.1064   -1.1021 C   0  0  0  0  0  0  0  0  0  0  0  0
   -0.7444    0.0052   -1.0113 C   0  0  0  0  0  0  0  0  0  0  0  0
   -0.4221    0.8498   -0.0373 C   0  0  0  0  0  0  0  0  0  0  0  0
   -0.8449    1.7267    0.8671 C   0  0  0  0  0  0  0  0  0  0  0  0
   -2.2708    1.7498    0.6912 C   0  0  0  0  0  0  0  0  0  0  0  0
   -2.9041    0.9577   -0.2691 C   0  0  0  0  0  0  0  0  0  0  0  0
   -2.6478   -0.5222   -1.8599 H   0  0  0  0  0  0  0  0  0  0  0  0
   -0.1281   -0.6395   -1.6331 H   0  0  0  0  0  0  0  0  0  0  0  0
    2.7569    0.7114    0.2593 N   0  0  0  0  0  0  0  0  0  0  0  0
    3.8547    0.6636    0.3616 N   0  0  0  0  0  0  0  0  0  0  0  0
   -3.9878    1.0049   -0.3703 H   0  0  0  0  0  0  0  0  0  0  0  0
   -2.8197    2.4228    1.3535 H   0  0  0  0  0  0  0  0  0  0  0  0
   -0.3009    2.3210    1.5972 H   0  0  0  0  0  0  0  0  0  0  0  0
  1  2  2  0  0  0  0
  1  6  1  0  0  0  0
  2  3  1  0  0  0  0
  3  4  2  0  0  0  0
  4 13  1  0  0  0  0
  5  4  1  0  0  0  0
  5 12  1  0  0  0  0
  6  5  2  0  0  0  0
  7  1  1  0  0  0  0
  8  2  1  0  0  0  0
  9 10  3  0  0  0  0
 11  6  1  0  0  0  0
M  RAD  1   3   2
M  END
