Coordinates from ORCA-job Ph-N2+-B3LYPG-aug-cc-pVDZ-scan-d09-49-n400
 OpenBabel09291715233D

 13 13  0  0  0  0  0  0  0  0999 V2000
   -1.9729    0.0944   -1.0867 C   0  0  0  0  0  0  0  0  0  0  0  0
   -0.5749    0.0100   -0.9821 C   0  0  0  0  0  0  0  0  0  0  0  0
   -0.0733    0.8346   -0.0048 C   0  0  0  0  0  0  0  0  0  0  0  0
   -0.6739    1.7071    0.8696 C   0  0  0  0  0  0  0  0  0  0  0  0
   -2.0692    1.7442    0.7134 C   0  0  0  0  0  0  0  0  0  0  0  0
   -2.7027    0.9490   -0.2503 C   0  0  0  0  0  0  0  0  0  0  0  0
   -2.4767   -0.5195   -1.8328 H   0  0  0  0  0  0  0  0  0  0  0  0
    0.0293   -0.6393   -1.6107 H   0  0  0  0  0  0  0  0  0  0  0  0
    1.6796    0.7583    0.1588 N   0  0  0  0  0  0  0  0  0  0  0  0
    2.7773    0.7105    0.2612 N   0  0  0  0  0  0  0  0  0  0  0  0
   -3.7864    0.9961   -0.3514 H   0  0  0  0  0  0  0  0  0  0  0  0
   -2.6473    2.4052    1.3585 H   0  0  0  0  0  0  0  0  0  0  0  0
   -0.1426    2.3070    1.6041 H   0  0  0  0  0  0  0  0  0  0  0  0
  1  2  2  0  0  0  0
  1  6  1  0  0  0  0
  2  3  1  0  0  0  0
  3  9  1  0  0  0  0
  3  4  2  0  0  0  0
  4 13  1  0  0  0  0
  5  4  1  0  0  0  0
  5 12  1  0  0  0  0
  6  5  2  0  0  0  0
  7  1  1  0  0  0  0
  8  2  1  0  0  0  0
  9 10  1  0  0  0  0
 11  6  1  0  0  0  0
M  RAD  2   9   2  10   3
M  END
