Coordinates from ORCA-job Ph-N2+-B3LYPG-aug-cc-pVDZ-scan-d09-49-n400
 OpenBabel09291715233D

 13 12  0  0  0  0  0  0  0  0999 V2000
   -2.4033    0.1166   -1.1232 C   0  0  0  0  0  0  0  0  0  0  0  0
   -0.9716    0.0144   -1.0332 C   0  0  0  0  0  0  0  0  0  0  0  0
   -0.6524    0.8599   -0.0587 C   0  0  0  0  0  0  0  0  0  0  0  0
   -1.0724    1.7374    0.8468 C   0  0  0  0  0  0  0  0  0  0  0  0
   -2.4994    1.7596    0.6696 C   0  0  0  0  0  0  0  0  0  0  0  0
   -3.1324    0.9677   -0.2904 C   0  0  0  0  0  0  0  0  0  0  0  0
   -2.8747   -0.5127   -1.8816 H   0  0  0  0  0  0  0  0  0  0  0  0
   -0.3571   -0.6315   -1.6565 H   0  0  0  0  0  0  0  0  0  0  0  0
    4.0124    0.6566    0.3764 N   0  0  0  0  0  0  0  0  0  0  0  0
    5.1108    0.6087    0.4784 N   0  0  0  0  0  0  0  0  0  0  0  0
   -4.2161    1.0148   -0.3917 H   0  0  0  0  0  0  0  0  0  0  0  0
   -3.0471    2.4331    1.3327 H   0  0  0  0  0  0  0  0  0  0  0  0
   -0.5305    2.3330    1.5782 H   0  0  0  0  0  0  0  0  0  0  0  0
  1  2  2  0  0  0  0
  1  6  1  0  0  0  0
  2  3  1  0  0  0  0
  3  4  2  0  0  0  0
  4 13  1  0  0  0  0
  5  4  1  0  0  0  0
  5 12  1  0  0  0  0
  6  5  2  0  0  0  0
  7  1  1  0  0  0  0
  8  2  1  0  0  0  0
  9 10  3  0  0  0  0
 11  6  1  0  0  0  0
M  RAD  1   3   2
M  END
