Coordinates from ORCA-job Ph-N2+-B3LYPG-aug-cc-pVDZ-scan-d09-49-n400
 OpenBabel09291715233D

 13 13  0  0  0  0  0  0  0  0999 V2000
   -1.9313    0.0906   -1.0850 C   0  0  0  0  0  0  0  0  0  0  0  0
   -0.5489    0.0153   -0.9727 C   0  0  0  0  0  0  0  0  0  0  0  0
    0.0552    0.8290    0.0072 C   0  0  0  0  0  0  0  0  0  0  0  0
   -0.6472    1.6995    0.8650 C   0  0  0  0  0  0  0  0  0  0  0  0
   -2.0278    1.7444    0.7195 C   0  0  0  0  0  0  0  0  0  0  0  0
   -2.6629    0.9472   -0.2466 C   0  0  0  0  0  0  0  0  0  0  0  0
   -2.4425   -0.5197   -1.8281 H   0  0  0  0  0  0  0  0  0  0  0  0
    0.0490   -0.6378   -1.6063 H   0  0  0  0  0  0  0  0  0  0  0  0
    1.4491    0.7683    0.1373 N   0  0  0  0  0  0  0  0  0  0  0  0
    2.5564    0.7202    0.2406 N   0  0  0  0  0  0  0  0  0  0  0  0
   -3.7472    0.9944   -0.3478 H   0  0  0  0  0  0  0  0  0  0  0  0
   -2.6130    2.4024    1.3603 H   0  0  0  0  0  0  0  0  0  0  0  0
   -0.1227    2.3038    1.6035 H   0  0  0  0  0  0  0  0  0  0  0  0
  1  2  2  0  0  0  0
  1  6  1  0  0  0  0
  2  3  1  0  0  0  0
  3  9  1  0  0  0  0
  3  4  2  0  0  0  0
  4 13  1  0  0  0  0
  5  4  1  0  0  0  0
  5 12  1  0  0  0  0
  6  5  2  0  0  0  0
  7  1  1  0  0  0  0
  8  2  1  0  0  0  0
  9 10  1  0  0  0  0
 11  6  1  0  0  0  0
M  RAD  2   9   2  10   3
M  END
