Coordinates from ORCA-job Ph-N2+-B3LYPG-aug-cc-pVDZ-scan-d09-49-n400
 OpenBabel09291715233D

 13 12  0  0  0  0  0  0  0  0999 V2000
   -2.1579    0.1055   -1.1007 C   0  0  0  0  0  0  0  0  0  0  0  0
   -0.7277    0.0047   -1.0096 C   0  0  0  0  0  0  0  0  0  0  0  0
   -0.4049    0.8490   -0.0357 C   0  0  0  0  0  0  0  0  0  0  0  0
   -0.8282    1.7258    0.8684 C   0  0  0  0  0  0  0  0  0  0  0  0
   -2.2539    1.7492    0.6929 C   0  0  0  0  0  0  0  0  0  0  0  0
   -2.8873    0.9570   -0.2675 C   0  0  0  0  0  0  0  0  0  0  0  0
   -2.6314   -0.5228   -1.8583 H   0  0  0  0  0  0  0  0  0  0  0  0
   -0.1110   -0.6399   -1.6311 H   0  0  0  0  0  0  0  0  0  0  0  0
    2.6643    0.7155    0.2507 N   0  0  0  0  0  0  0  0  0  0  0  0
    3.7622    0.6677    0.3530 N   0  0  0  0  0  0  0  0  0  0  0  0
   -3.9709    1.0042   -0.3687 H   0  0  0  0  0  0  0  0  0  0  0  0
   -2.8033    2.4221    1.3550 H   0  0  0  0  0  0  0  0  0  0  0  0
   -0.2837    2.3198    1.5984 H   0  0  0  0  0  0  0  0  0  0  0  0
  1  2  2  0  0  0  0
  1  6  1  0  0  0  0
  2  3  1  0  0  0  0
  3  4  2  0  0  0  0
  4 13  1  0  0  0  0
  5  4  1  0  0  0  0
  5 12  1  0  0  0  0
  6  5  2  0  0  0  0
  7  1  1  0  0  0  0
  8  2  1  0  0  0  0
  9 10  3  0  0  0  0
 11  6  1  0  0  0  0
M  RAD  1   3   2
M  END
