Coordinates from ORCA-job Ph-N2+-B3LYPG-aug-cc-pVDZ-scan-d09-49-n400
 OpenBabel09291715233D

 13 13  0  0  0  0  0  0  0  0999 V2000
   -1.9324    0.0907   -1.0851 C   0  0  0  0  0  0  0  0  0  0  0  0
   -0.5496    0.0152   -0.9729 C   0  0  0  0  0  0  0  0  0  0  0  0
    0.0517    0.8291    0.0068 C   0  0  0  0  0  0  0  0  0  0  0  0
   -0.6479    1.6996    0.8651 C   0  0  0  0  0  0  0  0  0  0  0  0
   -2.0289    1.7444    0.7194 C   0  0  0  0  0  0  0  0  0  0  0  0
   -2.6639    0.9473   -0.2467 C   0  0  0  0  0  0  0  0  0  0  0  0
   -2.4436   -0.5196   -1.8282 H   0  0  0  0  0  0  0  0  0  0  0  0
    0.0483   -0.6378   -1.6064 H   0  0  0  0  0  0  0  0  0  0  0  0
    1.4556    0.7681    0.1379 N   0  0  0  0  0  0  0  0  0  0  0  0
    2.5625    0.7199    0.2412 N   0  0  0  0  0  0  0  0  0  0  0  0
   -3.7482    0.9945   -0.3479 H   0  0  0  0  0  0  0  0  0  0  0  0
   -2.6141    2.4024    1.3601 H   0  0  0  0  0  0  0  0  0  0  0  0
   -0.1233    2.3038    1.6034 H   0  0  0  0  0  0  0  0  0  0  0  0
  1  2  2  0  0  0  0
  1  6  1  0  0  0  0
  2  3  1  0  0  0  0
  3  9  1  0  0  0  0
  3  4  2  0  0  0  0
  4 13  1  0  0  0  0
  5  4  1  0  0  0  0
  5 12  1  0  0  0  0
  6  5  2  0  0  0  0
  7  1  1  0  0  0  0
  8  2  1  0  0  0  0
  9 10  1  0  0  0  0
 11  6  1  0  0  0  0
M  RAD  2   9   2  10   3
M  END
