Coordinates from ORCA-job Ph-N2+-B3LYPG-aug-cc-pVDZ-scan-d09-49-n400
 OpenBabel09291715233D

 13 12  0  0  0  0  0  0  0  0999 V2000
   -2.1173    0.1037   -1.0969 C   0  0  0  0  0  0  0  0  0  0  0  0
   -0.6888    0.0036   -1.0053 C   0  0  0  0  0  0  0  0  0  0  0  0
   -0.3569    0.8469   -0.0313 C   0  0  0  0  0  0  0  0  0  0  0  0
   -0.7891    1.7235    0.8714 C   0  0  0  0  0  0  0  0  0  0  0  0
   -2.2132    1.7475    0.6967 C   0  0  0  0  0  0  0  0  0  0  0  0
   -2.8467    0.9552   -0.2637 C   0  0  0  0  0  0  0  0  0  0  0  0
   -2.5923   -0.5239   -1.8540 H   0  0  0  0  0  0  0  0  0  0  0  0
   -0.0731   -0.6411   -1.6272 H   0  0  0  0  0  0  0  0  0  0  0  0
    2.4431    0.7251    0.2301 N   0  0  0  0  0  0  0  0  0  0  0  0
    3.5407    0.6773    0.3324 N   0  0  0  0  0  0  0  0  0  0  0  0
   -3.9302    1.0024   -0.3649 H   0  0  0  0  0  0  0  0  0  0  0  0
   -2.7641    2.4197    1.3580 H   0  0  0  0  0  0  0  0  0  0  0  0
   -0.2458    2.3178    1.6015 H   0  0  0  0  0  0  0  0  0  0  0  0
  1  2  2  0  0  0  0
  1  6  1  0  0  0  0
  2  3  1  0  0  0  0
  3  4  2  0  0  0  0
  4 13  1  0  0  0  0
  5  4  1  0  0  0  0
  5 12  1  0  0  0  0
  6  5  2  0  0  0  0
  7  1  1  0  0  0  0
  8  2  1  0  0  0  0
  9 10  3  0  0  0  0
 11  6  1  0  0  0  0
M  RAD  1   3   2
M  END
