Coordinates from ORCA-job Ph-N2+-B3LYPG-aug-cc-pVDZ-scan-d09-49-n400
 OpenBabel09291715233D

 13 12  0  0  0  0  0  0  0  0999 V2000
   -2.0123    0.0981   -1.0883 C   0  0  0  0  0  0  0  0  0  0  0  0
   -0.6009    0.0057   -0.9906 C   0  0  0  0  0  0  0  0  0  0  0  0
   -0.1763    0.8391   -0.0144 C   0  0  0  0  0  0  0  0  0  0  0  0
   -0.7006    1.7137    0.8731 C   0  0  0  0  0  0  0  0  0  0  0  0
   -2.1084    1.7440    0.7077 C   0  0  0  0  0  0  0  0  0  0  0  0
   -2.7420    0.9507   -0.2539 C   0  0  0  0  0  0  0  0  0  0  0  0
   -2.5032   -0.5221   -1.8394 H   0  0  0  0  0  0  0  0  0  0  0  0
    0.0069   -0.6417   -1.6165 H   0  0  0  0  0  0  0  0  0  0  0  0
    1.8857    0.7493    0.1780 N   0  0  0  0  0  0  0  0  0  0  0  0
    2.9827    0.7016    0.2804 N   0  0  0  0  0  0  0  0  0  0  0  0
   -3.8255    0.9978   -0.3551 H   0  0  0  0  0  0  0  0  0  0  0  0
   -2.6743    2.4101    1.3601 H   0  0  0  0  0  0  0  0  0  0  0  0
   -0.1654    2.3114    1.6057 H   0  0  0  0  0  0  0  0  0  0  0  0
  1  2  2  0  0  0  0
  1  6  1  0  0  0  0
  2  3  1  0  0  0  0
  3  4  2  0  0  0  0
  4 13  1  0  0  0  0
  5  4  1  0  0  0  0
  5 12  1  0  0  0  0
  6  5  2  0  0  0  0
  7  1  1  0  0  0  0
  8  2  1  0  0  0  0
  9 10  3  0  0  0  0
 11  6  1  0  0  0  0
M  RAD  1   3   2
M  END
