Coordinates from ORCA-job Ph-N2+-B3LYPG-aug-cc-pVDZ-scan-d09-49-n400
 OpenBabel09291715233D

 13 12  0  0  0  0  0  0  0  0999 V2000
   -2.3094    0.1123   -1.1146 C   0  0  0  0  0  0  0  0  0  0  0  0
   -0.8777    0.0106   -1.0241 C   0  0  0  0  0  0  0  0  0  0  0  0
   -0.5609    0.8558   -0.0502 C   0  0  0  0  0  0  0  0  0  0  0  0
   -0.9783    1.7330    0.8551 C   0  0  0  0  0  0  0  0  0  0  0  0
   -2.4054    1.7556    0.6785 C   0  0  0  0  0  0  0  0  0  0  0  0
   -3.0386    0.9636   -0.2817 C   0  0  0  0  0  0  0  0  0  0  0  0
   -2.7810   -0.5169   -1.8729 H   0  0  0  0  0  0  0  0  0  0  0  0
   -0.2617   -0.6346   -1.6465 H   0  0  0  0  0  0  0  0  0  0  0  0
    3.4956    0.6792    0.3282 N   0  0  0  0  0  0  0  0  0  0  0  0
    4.5939    0.6314    0.4304 N   0  0  0  0  0  0  0  0  0  0  0  0
   -4.1223    1.0107   -0.3829 H   0  0  0  0  0  0  0  0  0  0  0  0
   -2.9531    2.4292    1.3416 H   0  0  0  0  0  0  0  0  0  0  0  0
   -0.4348    2.3277    1.5858 H   0  0  0  0  0  0  0  0  0  0  0  0
  1  2  2  0  0  0  0
  1  6  1  0  0  0  0
  2  3  1  0  0  0  0
  3  4  2  0  0  0  0
  4 13  1  0  0  0  0
  5  4  1  0  0  0  0
  5 12  1  0  0  0  0
  6  5  2  0  0  0  0
  7  1  1  0  0  0  0
  8  2  1  0  0  0  0
  9 10  3  0  0  0  0
 11  6  1  0  0  0  0
M  RAD  1   3   2
M  END
