Coordinates from ORCA-job Ph-N2+-B3LYPG-aug-cc-pVDZ-scan-d09-49-n400
 OpenBabel09291715233D

 13 12  0  0  0  0  0  0  0  0999 V2000
   -2.2359    0.1091   -1.1078 C   0  0  0  0  0  0  0  0  0  0  0  0
   -0.8046    0.0076   -1.0172 C   0  0  0  0  0  0  0  0  0  0  0  0
   -0.4862    0.8526   -0.0433 C   0  0  0  0  0  0  0  0  0  0  0  0
   -0.9051    1.7296    0.8618 C   0  0  0  0  0  0  0  0  0  0  0  0
   -2.3318    1.7525    0.6854 C   0  0  0  0  0  0  0  0  0  0  0  0
   -2.9652    0.9604   -0.2748 C   0  0  0  0  0  0  0  0  0  0  0  0
   -2.7079   -0.5199   -1.8659 H   0  0  0  0  0  0  0  0  0  0  0  0
   -0.1882   -0.6374   -1.6392 H   0  0  0  0  0  0  0  0  0  0  0  0
    3.0916    0.6968    0.2905 N   0  0  0  0  0  0  0  0  0  0  0  0
    4.1897    0.6490    0.3928 N   0  0  0  0  0  0  0  0  0  0  0  0
   -4.0488    1.0075   -0.3760 H   0  0  0  0  0  0  0  0  0  0  0  0
   -2.8800    2.4258    1.3483 H   0  0  0  0  0  0  0  0  0  0  0  0
   -0.3612    2.3241    1.5922 H   0  0  0  0  0  0  0  0  0  0  0  0
  1  2  2  0  0  0  0
  1  6  1  0  0  0  0
  2  3  1  0  0  0  0
  3  4  2  0  0  0  0
  4 13  1  0  0  0  0
  5  4  1  0  0  0  0
  5 12  1  0  0  0  0
  6  5  2  0  0  0  0
  7  1  1  0  0  0  0
  8  2  1  0  0  0  0
  9 10  3  0  0  0  0
 11  6  1  0  0  0  0
M  RAD  1   3   2
M  END
