Coordinates from ORCA-job Ph-N2+-B3LYPG-aug-cc-pVDZ-scan-d09-49-n400
 OpenBabel09291715233D

 13 12  0  0  0  0  0  0  0  0999 V2000
   -2.2347    0.1092   -1.1075 C   0  0  0  0  0  0  0  0  0  0  0  0
   -0.8036    0.0073   -1.0174 C   0  0  0  0  0  0  0  0  0  0  0  0
   -0.4824    0.8524   -0.0429 C   0  0  0  0  0  0  0  0  0  0  0  0
   -0.9042    1.7298    0.8622 C   0  0  0  0  0  0  0  0  0  0  0  0
   -2.3307    1.7523    0.6854 C   0  0  0  0  0  0  0  0  0  0  0  0
   -2.9639    0.9603   -0.2747 C   0  0  0  0  0  0  0  0  0  0  0  0
   -2.7070   -0.5197   -1.8656 H   0  0  0  0  0  0  0  0  0  0  0  0
   -0.1883   -0.6381   -1.6401 H   0  0  0  0  0  0  0  0  0  0  0  0
    3.0855    0.6971    0.2900 N   0  0  0  0  0  0  0  0  0  0  0  0
    4.1836    0.6493    0.3922 N   0  0  0  0  0  0  0  0  0  0  0  0
   -4.0475    1.0075   -0.3759 H   0  0  0  0  0  0  0  0  0  0  0  0
   -2.8790    2.4256    1.3482 H   0  0  0  0  0  0  0  0  0  0  0  0
   -0.3614    2.3248    1.5930 H   0  0  0  0  0  0  0  0  0  0  0  0
  1  2  2  0  0  0  0
  1  6  1  0  0  0  0
  2  3  1  0  0  0  0
  3  4  2  0  0  0  0
  4 13  1  0  0  0  0
  5  4  1  0  0  0  0
  5 12  1  0  0  0  0
  6  5  2  0  0  0  0
  7  1  1  0  0  0  0
  8  2  1  0  0  0  0
  9 10  3  0  0  0  0
 11  6  1  0  0  0  0
M  RAD  1   3   2
M  END
