Coordinates from ORCA-job Ph-N2+-B3LYPG-aug-cc-pVDZ-scan-d09-49-n400
 OpenBabel09291715233D

 13 12  0  0  0  0  0  0  0  0999 V2000
   -2.2082    0.1077   -1.1053 C   0  0  0  0  0  0  0  0  0  0  0  0
   -0.7769    0.0065   -1.0146 C   0  0  0  0  0  0  0  0  0  0  0  0
   -0.4591    0.8514   -0.0408 C   0  0  0  0  0  0  0  0  0  0  0  0
   -0.8774    1.7283    0.8643 C   0  0  0  0  0  0  0  0  0  0  0  0
   -2.3041    1.7514    0.6881 C   0  0  0  0  0  0  0  0  0  0  0  0
   -2.9375    0.9592   -0.2722 C   0  0  0  0  0  0  0  0  0  0  0  0
   -2.6806   -0.5210   -1.8633 H   0  0  0  0  0  0  0  0  0  0  0  0
   -0.1599   -0.6382   -1.6361 H   0  0  0  0  0  0  0  0  0  0  0  0
    2.9393    0.7035    0.2763 N   0  0  0  0  0  0  0  0  0  0  0  0
    4.0373    0.6557    0.3786 N   0  0  0  0  0  0  0  0  0  0  0  0
   -4.0211    1.0063   -0.3734 H   0  0  0  0  0  0  0  0  0  0  0  0
   -2.8526    2.4246    1.3508 H   0  0  0  0  0  0  0  0  0  0  0  0
   -0.3328    2.3224    1.5943 H   0  0  0  0  0  0  0  0  0  0  0  0
  1  2  2  0  0  0  0
  1  6  1  0  0  0  0
  2  3  1  0  0  0  0
  3  4  2  0  0  0  0
  4 13  1  0  0  0  0
  5  4  1  0  0  0  0
  5 12  1  0  0  0  0
  6  5  2  0  0  0  0
  7  1  1  0  0  0  0
  8  2  1  0  0  0  0
  9 10  3  0  0  0  0
 11  6  1  0  0  0  0
M  RAD  1   3   2
M  END
