Coordinates from ORCA-job Ph-N2+-B3LYPG-aug-cc-pVDZ-scan-d09-49-n400
 OpenBabel09291715233D

 13 12  0  0  0  0  0  0  0  0999 V2000
   -2.0424    0.1001   -1.0903 C   0  0  0  0  0  0  0  0  0  0  0  0
   -0.6238    0.0041   -0.9956 C   0  0  0  0  0  0  0  0  0  0  0  0
   -0.2381    0.8418   -0.0202 C   0  0  0  0  0  0  0  0  0  0  0  0
   -0.7237    1.7173    0.8738 C   0  0  0  0  0  0  0  0  0  0  0  0
   -2.1384    1.7445    0.7040 C   0  0  0  0  0  0  0  0  0  0  0  0
   -2.7721    0.9520   -0.2567 C   0  0  0  0  0  0  0  0  0  0  0  0
   -2.5258   -0.5235   -1.8442 H   0  0  0  0  0  0  0  0  0  0  0  0
   -0.0139   -0.6425   -1.6203 H   0  0  0  0  0  0  0  0  0  0  0  0
    2.0433    0.7425    0.1927 N   0  0  0  0  0  0  0  0  0  0  0  0
    3.1405    0.6947    0.2951 N   0  0  0  0  0  0  0  0  0  0  0  0
   -3.8556    0.9991   -0.3579 H   0  0  0  0  0  0  0  0  0  0  0  0
   -2.6972    2.4136    1.3607 H   0  0  0  0  0  0  0  0  0  0  0  0
   -0.1864    2.3140    1.6057 H   0  0  0  0  0  0  0  0  0  0  0  0
  1  2  2  0  0  0  0
  1  6  1  0  0  0  0
  2  3  1  0  0  0  0
  3  4  2  0  0  0  0
  4 13  1  0  0  0  0
  5  4  1  0  0  0  0
  5 12  1  0  0  0  0
  6  5  2  0  0  0  0
  7  1  1  0  0  0  0
  8  2  1  0  0  0  0
  9 10  3  0  0  0  0
 11  6  1  0  0  0  0
M  RAD  1   3   2
M  END
