Coordinates from ORCA-job Ph-N2+-B3LYPG-aug-cc-pVDZ-scan-d09-49-n400
 OpenBabel09291715233D

 13 12  0  0  0  0  0  0  0  0999 V2000
   -2.3553    0.1143   -1.1189 C   0  0  0  0  0  0  0  0  0  0  0  0
   -0.9236    0.0126   -1.0284 C   0  0  0  0  0  0  0  0  0  0  0  0
   -0.6071    0.8579   -0.0545 C   0  0  0  0  0  0  0  0  0  0  0  0
   -1.0243    1.7350    0.8509 C   0  0  0  0  0  0  0  0  0  0  0  0
   -2.4514    1.7576    0.6742 C   0  0  0  0  0  0  0  0  0  0  0  0
   -3.0846    0.9656   -0.2860 C   0  0  0  0  0  0  0  0  0  0  0  0
   -2.8268   -0.5150   -1.8773 H   0  0  0  0  0  0  0  0  0  0  0  0
   -0.3077   -0.6327   -1.6509 H   0  0  0  0  0  0  0  0  0  0  0  0
    3.7485    0.6682    0.3518 N   0  0  0  0  0  0  0  0  0  0  0  0
    4.8469    0.6203    0.4539 N   0  0  0  0  0  0  0  0  0  0  0  0
   -4.1683    1.0127   -0.3872 H   0  0  0  0  0  0  0  0  0  0  0  0
   -2.9990    2.4312    1.3374 H   0  0  0  0  0  0  0  0  0  0  0  0
   -0.4810    2.3299    1.5817 H   0  0  0  0  0  0  0  0  0  0  0  0
  1  2  2  0  0  0  0
  1  6  1  0  0  0  0
  2  3  1  0  0  0  0
  3  4  2  0  0  0  0
  4 13  1  0  0  0  0
  5  4  1  0  0  0  0
  5 12  1  0  0  0  0
  6  5  2  0  0  0  0
  7  1  1  0  0  0  0
  8  2  1  0  0  0  0
  9 10  3  0  0  0  0
 11  6  1  0  0  0  0
M  RAD  1   3   2
M  END
