Coordinates from ORCA-job Ph-N2+-B3LYPG-aug-cc-pVDZ-scan-d09-49-n400
 OpenBabel09291715233D

 13 12  0  0  0  0  0  0  0  0999 V2000
   -2.2298    0.1088   -1.1072 C   0  0  0  0  0  0  0  0  0  0  0  0
   -0.7985    0.0073   -1.0166 C   0  0  0  0  0  0  0  0  0  0  0  0
   -0.4799    0.8523   -0.0427 C   0  0  0  0  0  0  0  0  0  0  0  0
   -0.8991    1.7293    0.8623 C   0  0  0  0  0  0  0  0  0  0  0  0
   -2.3257    1.7522    0.6860 C   0  0  0  0  0  0  0  0  0  0  0  0
   -2.9591    0.9601   -0.2742 C   0  0  0  0  0  0  0  0  0  0  0  0
   -2.7019   -0.5201   -1.8653 H   0  0  0  0  0  0  0  0  0  0  0  0
   -0.1822   -0.6376   -1.6386 H   0  0  0  0  0  0  0  0  0  0  0  0
    3.0580    0.6983    0.2874 N   0  0  0  0  0  0  0  0  0  0  0  0
    4.1561    0.6505    0.3897 N   0  0  0  0  0  0  0  0  0  0  0  0
   -4.0427    1.0073   -0.3754 H   0  0  0  0  0  0  0  0  0  0  0  0
   -2.8739    2.4255    1.3488 H   0  0  0  0  0  0  0  0  0  0  0  0
   -0.3551    2.3238    1.5927 H   0  0  0  0  0  0  0  0  0  0  0  0
  1  2  2  0  0  0  0
  1  6  1  0  0  0  0
  2  3  1  0  0  0  0
  3  4  2  0  0  0  0
  4 13  1  0  0  0  0
  5  4  1  0  0  0  0
  5 12  1  0  0  0  0
  6  5  2  0  0  0  0
  7  1  1  0  0  0  0
  8  2  1  0  0  0  0
  9 10  3  0  0  0  0
 11  6  1  0  0  0  0
M  RAD  1   3   2
M  END
