Coordinates from ORCA-job Ph-N2+-B3LYPG-aug-cc-pVDZ-scan-d09-49-n400
 OpenBabel09291715233D

 13 13  0  0  0  0  0  0  0  0999 V2000
   -1.9877    0.0959   -1.0872 C   0  0  0  0  0  0  0  0  0  0  0  0
   -0.5842    0.0081   -0.9856 C   0  0  0  0  0  0  0  0  0  0  0  0
   -0.1151    0.8364   -0.0087 C   0  0  0  0  0  0  0  0  0  0  0  0
   -0.6835    1.7098    0.8713 C   0  0  0  0  0  0  0  0  0  0  0  0
   -2.0839    1.7440    0.7111 C   0  0  0  0  0  0  0  0  0  0  0  0
   -2.7174    0.9496   -0.2516 C   0  0  0  0  0  0  0  0  0  0  0  0
   -2.4866   -0.5204   -1.8352 H   0  0  0  0  0  0  0  0  0  0  0  0
    0.0216   -0.6403   -1.6129 H   0  0  0  0  0  0  0  0  0  0  0  0
    1.7575    0.7549    0.1661 N   0  0  0  0  0  0  0  0  0  0  0  0
    2.8545    0.7072    0.2684 N   0  0  0  0  0  0  0  0  0  0  0  0
   -3.8010    0.9968   -0.3528 H   0  0  0  0  0  0  0  0  0  0  0  0
   -2.6574    2.4070    1.3590 H   0  0  0  0  0  0  0  0  0  0  0  0
   -0.1505    2.3087    1.6049 H   0  0  0  0  0  0  0  0  0  0  0  0
  1  2  2  0  0  0  0
  1  6  1  0  0  0  0
  2  3  1  0  0  0  0
  3  9  1  0  0  0  0
  3  4  2  0  0  0  0
  4 13  1  0  0  0  0
  5  4  1  0  0  0  0
  5 12  1  0  0  0  0
  6  5  2  0  0  0  0
  7  1  1  0  0  0  0
  8  2  1  0  0  0  0
  9 10  1  0  0  0  0
 11  6  1  0  0  0  0
M  RAD  2   9   2  10   3
M  END
