Coordinates from ORCA-job Ph-N2+-B3LYPG-aug-cc-pVDZ-scan-d09-49-n400
 OpenBabel09291715233D

 13 12  0  0  0  0  0  0  0  0999 V2000
   -2.3082    0.1124   -1.1143 C   0  0  0  0  0  0  0  0  0  0  0  0
   -0.8767    0.0103   -1.0244 C   0  0  0  0  0  0  0  0  0  0  0  0
   -0.5570    0.8557   -0.0498 C   0  0  0  0  0  0  0  0  0  0  0  0
   -0.9774    1.7332    0.8555 C   0  0  0  0  0  0  0  0  0  0  0  0
   -2.4042    1.7554    0.6785 C   0  0  0  0  0  0  0  0  0  0  0  0
   -3.0373    0.9635   -0.2815 C   0  0  0  0  0  0  0  0  0  0  0  0
   -2.7800   -0.5167   -1.8726 H   0  0  0  0  0  0  0  0  0  0  0  0
   -0.2618   -0.6353   -1.6474 H   0  0  0  0  0  0  0  0  0  0  0  0
    3.4895    0.6795    0.3276 N   0  0  0  0  0  0  0  0  0  0  0  0
    4.5878    0.6316    0.4298 N   0  0  0  0  0  0  0  0  0  0  0  0
   -4.1210    1.0107   -0.3828 H   0  0  0  0  0  0  0  0  0  0  0  0
   -2.9522    2.4289    1.3415 H   0  0  0  0  0  0  0  0  0  0  0  0
   -0.4350    2.3285    1.5866 H   0  0  0  0  0  0  0  0  0  0  0  0
  1  2  2  0  0  0  0
  1  6  1  0  0  0  0
  2  3  1  0  0  0  0
  3  4  2  0  0  0  0
  4 13  1  0  0  0  0
  5  4  1  0  0  0  0
  5 12  1  0  0  0  0
  6  5  2  0  0  0  0
  7  1  1  0  0  0  0
  8  2  1  0  0  0  0
  9 10  3  0  0  0  0
 11  6  1  0  0  0  0
M  RAD  1   3   2
M  END
