Coordinates from ORCA-job Ph-N2+-B3LYPG-aug-cc-pVDZ-scan-d09-49-n400
 OpenBabel09291715233D

 13 12  0  0  0  0  0  0  0  0999 V2000
   -2.2849    0.1112   -1.1123 C   0  0  0  0  0  0  0  0  0  0  0  0
   -0.8533    0.0096   -1.0218 C   0  0  0  0  0  0  0  0  0  0  0  0
   -0.5361    0.8547   -0.0479 C   0  0  0  0  0  0  0  0  0  0  0  0
   -0.9539    1.7318    0.8574 C   0  0  0  0  0  0  0  0  0  0  0  0
   -2.3809    1.7546    0.6808 C   0  0  0  0  0  0  0  0  0  0  0  0
   -3.0141    0.9625   -0.2794 C   0  0  0  0  0  0  0  0  0  0  0  0
   -2.7566   -0.5179   -1.8706 H   0  0  0  0  0  0  0  0  0  0  0  0
   -0.2371   -0.6355   -1.6441 H   0  0  0  0  0  0  0  0  0  0  0  0
    3.3608    0.6851    0.3156 N   0  0  0  0  0  0  0  0  0  0  0  0
    4.4590    0.6372    0.4178 N   0  0  0  0  0  0  0  0  0  0  0  0
   -4.0978    1.0097   -0.3806 H   0  0  0  0  0  0  0  0  0  0  0  0
   -2.9287    2.4281    1.3439 H   0  0  0  0  0  0  0  0  0  0  0  0
   -0.4102    2.3265    1.5880 H   0  0  0  0  0  0  0  0  0  0  0  0
  1  2  2  0  0  0  0
  1  6  1  0  0  0  0
  2  3  1  0  0  0  0
  3  4  2  0  0  0  0
  4 13  1  0  0  0  0
  5  4  1  0  0  0  0
  5 12  1  0  0  0  0
  6  5  2  0  0  0  0
  7  1  1  0  0  0  0
  8  2  1  0  0  0  0
  9 10  3  0  0  0  0
 11  6  1  0  0  0  0
M  RAD  1   3   2
M  END
