Coordinates from ORCA-job Ph-N2+-B3LYPG-aug-cc-pVDZ-scan-d09-49-n400
 OpenBabel09291715233D

 13 12  0  0  0  0  0  0  0  0999 V2000
   -2.0921    0.1026   -1.0946 C   0  0  0  0  0  0  0  0  0  0  0  0
   -0.6657    0.0031   -1.0025 C   0  0  0  0  0  0  0  0  0  0  0  0
   -0.3227    0.8454   -0.0281 C   0  0  0  0  0  0  0  0  0  0  0  0
   -0.7660    1.7219    0.8729 C   0  0  0  0  0  0  0  0  0  0  0  0
   -2.1880    1.7464    0.6991 C   0  0  0  0  0  0  0  0  0  0  0  0
   -2.8216    0.9542   -0.2614 C   0  0  0  0  0  0  0  0  0  0  0  0
   -2.5689   -0.5242   -1.8510 H   0  0  0  0  0  0  0  0  0  0  0  0
   -0.0517   -0.6420   -1.6251 H   0  0  0  0  0  0  0  0  0  0  0  0
    2.3078    0.7310    0.2174 N   0  0  0  0  0  0  0  0  0  0  0  0
    3.4053    0.6832    0.3198 N   0  0  0  0  0  0  0  0  0  0  0  0
   -3.9051    1.0013   -0.3625 H   0  0  0  0  0  0  0  0  0  0  0  0
   -2.7406    2.4180    1.3594 H   0  0  0  0  0  0  0  0  0  0  0  0
   -0.2244    2.3168    1.6035 H   0  0  0  0  0  0  0  0  0  0  0  0
  1  2  2  0  0  0  0
  1  6  1  0  0  0  0
  2  3  1  0  0  0  0
  3  4  2  0  0  0  0
  4 13  1  0  0  0  0
  5  4  1  0  0  0  0
  5 12  1  0  0  0  0
  6  5  2  0  0  0  0
  7  1  1  0  0  0  0
  8  2  1  0  0  0  0
  9 10  3  0  0  0  0
 11  6  1  0  0  0  0
M  RAD  1   3   2
M  END
