Coordinates from ORCA-job Ph-N2+-B3LYPG-aug-cc-pVDZ-scan-d09-49-n400
 OpenBabel09291715233D

 13 12  0  0  0  0  0  0  0  0999 V2000
   -2.3113    0.1125   -1.1146 C   0  0  0  0  0  0  0  0  0  0  0  0
   -0.8798    0.0105   -1.0246 C   0  0  0  0  0  0  0  0  0  0  0  0
   -0.5601    0.8558   -0.0501 C   0  0  0  0  0  0  0  0  0  0  0  0
   -0.9804    1.7333    0.8552 C   0  0  0  0  0  0  0  0  0  0  0  0
   -2.4073    1.7556    0.6782 C   0  0  0  0  0  0  0  0  0  0  0  0
   -3.0404    0.9637   -0.2818 C   0  0  0  0  0  0  0  0  0  0  0  0
   -2.7831   -0.5166   -1.8729 H   0  0  0  0  0  0  0  0  0  0  0  0
   -0.2649   -0.6352   -1.6476 H   0  0  0  0  0  0  0  0  0  0  0  0
    3.5064    0.6787    0.3292 N   0  0  0  0  0  0  0  0  0  0  0  0
    4.6046    0.6309    0.4314 N   0  0  0  0  0  0  0  0  0  0  0  0
   -4.1241    1.0108   -0.3831 H   0  0  0  0  0  0  0  0  0  0  0  0
   -2.9552    2.4290    1.3412 H   0  0  0  0  0  0  0  0  0  0  0  0
   -0.4381    2.3287    1.5864 H   0  0  0  0  0  0  0  0  0  0  0  0
  1  2  2  0  0  0  0
  1  6  1  0  0  0  0
  2  3  1  0  0  0  0
  3  4  2  0  0  0  0
  4 13  1  0  0  0  0
  5  4  1  0  0  0  0
  5 12  1  0  0  0  0
  6  5  2  0  0  0  0
  7  1  1  0  0  0  0
  8  2  1  0  0  0  0
  9 10  3  0  0  0  0
 11  6  1  0  0  0  0
M  RAD  1   3   2
M  END
