Coordinates from ORCA-job Ph-N2+-B3LYPG-aug-cc-pVDZ-scan-d09-49-n400
 OpenBabel09291715233D

 13 13  0  0  0  0  0  0  0  0999 V2000
   -1.9528    0.0924   -1.0861 C   0  0  0  0  0  0  0  0  0  0  0  0
   -0.5627    0.0129   -0.9772 C   0  0  0  0  0  0  0  0  0  0  0  0
   -0.0121    0.8319    0.0009 C   0  0  0  0  0  0  0  0  0  0  0  0
   -0.6613    1.7031    0.8670 C   0  0  0  0  0  0  0  0  0  0  0  0
   -2.0492    1.7445    0.7166 C   0  0  0  0  0  0  0  0  0  0  0  0
   -2.6831    0.9481   -0.2484 C   0  0  0  0  0  0  0  0  0  0  0  0
   -2.4618   -0.5190   -1.8301 H   0  0  0  0  0  0  0  0  0  0  0  0
    0.0386   -0.6382   -1.6082 H   0  0  0  0  0  0  0  0  0  0  0  0
    1.5713    0.7630    0.1487 N   0  0  0  0  0  0  0  0  0  0  0  0
    2.6719    0.7151    0.2514 N   0  0  0  0  0  0  0  0  0  0  0  0
   -3.7671    0.9953   -0.3496 H   0  0  0  0  0  0  0  0  0  0  0  0
   -2.6323    2.4034    1.3586 H   0  0  0  0  0  0  0  0  0  0  0  0
   -0.1332    2.3051    1.6034 H   0  0  0  0  0  0  0  0  0  0  0  0
  1  2  2  0  0  0  0
  1  6  1  0  0  0  0
  2  3  1  0  0  0  0
  3  9  1  0  0  0  0
  3  4  2  0  0  0  0
  4 13  1  0  0  0  0
  5  4  1  0  0  0  0
  5 12  1  0  0  0  0
  6  5  2  0  0  0  0
  7  1  1  0  0  0  0
  8  2  1  0  0  0  0
  9 10  1  0  0  0  0
 11  6  1  0  0  0  0
M  RAD  2   9   2  10   3
M  END
