Coordinates from ORCA-job Ph-N2+-B3LYPG-aug-cc-pVDZ-scan-d09-49-n400
 OpenBabel09291715233D

 13 12  0  0  0  0  0  0  0  0999 V2000
   -2.1990    0.1073   -1.1045 C   0  0  0  0  0  0  0  0  0  0  0  0
   -0.7679    0.0061   -1.0137 C   0  0  0  0  0  0  0  0  0  0  0  0
   -0.4494    0.8509   -0.0399 C   0  0  0  0  0  0  0  0  0  0  0  0
   -0.8684    1.7279    0.8650 C   0  0  0  0  0  0  0  0  0  0  0  0
   -2.2950    1.7510    0.6890 C   0  0  0  0  0  0  0  0  0  0  0  0
   -2.9283    0.9588   -0.2714 C   0  0  0  0  0  0  0  0  0  0  0  0
   -2.6716   -0.5214   -1.8624 H   0  0  0  0  0  0  0  0  0  0  0  0
   -0.1509   -0.6385   -1.6352 H   0  0  0  0  0  0  0  0  0  0  0  0
    2.8890    0.7057    0.2717 N   0  0  0  0  0  0  0  0  0  0  0  0
    3.9870    0.6579    0.3739 N   0  0  0  0  0  0  0  0  0  0  0  0
   -4.0120    1.0059   -0.3725 H   0  0  0  0  0  0  0  0  0  0  0  0
   -2.8436    2.4241    1.3516 H   0  0  0  0  0  0  0  0  0  0  0  0
   -0.3237    2.3219    1.5951 H   0  0  0  0  0  0  0  0  0  0  0  0
  1  2  2  0  0  0  0
  1  6  1  0  0  0  0
  2  3  1  0  0  0  0
  3  4  2  0  0  0  0
  4 13  1  0  0  0  0
  5  4  1  0  0  0  0
  5 12  1  0  0  0  0
  6  5  2  0  0  0  0
  7  1  1  0  0  0  0
  8  2  1  0  0  0  0
  9 10  3  0  0  0  0
 11  6  1  0  0  0  0
M  RAD  1   3   2
M  END
