Coordinates from ORCA-job Ph-N2+-B3LYPG-aug-cc-pVDZ-scan-d09-49-n400
 OpenBabel09291715233D

 13 12  0  0  0  0  0  0  0  0999 V2000
   -2.1807    0.1065   -1.1028 C   0  0  0  0  0  0  0  0  0  0  0  0
   -0.7499    0.0054   -1.0119 C   0  0  0  0  0  0  0  0  0  0  0  0
   -0.4299    0.8501   -0.0381 C   0  0  0  0  0  0  0  0  0  0  0  0
   -0.8504    1.7270    0.8666 C   0  0  0  0  0  0  0  0  0  0  0  0
   -2.2767    1.7502    0.6907 C   0  0  0  0  0  0  0  0  0  0  0  0
   -2.9101    0.9580   -0.2696 C   0  0  0  0  0  0  0  0  0  0  0  0
   -2.6536   -0.5221   -1.8606 H   0  0  0  0  0  0  0  0  0  0  0  0
   -0.1330   -0.6391   -1.6334 H   0  0  0  0  0  0  0  0  0  0  0  0
    2.7889    0.7100    0.2623 N   0  0  0  0  0  0  0  0  0  0  0  0
    3.8868    0.6622    0.3646 N   0  0  0  0  0  0  0  0  0  0  0  0
   -3.9937    1.0052   -0.3708 H   0  0  0  0  0  0  0  0  0  0  0  0
   -2.8256    2.4232    1.3531 H   0  0  0  0  0  0  0  0  0  0  0  0
   -0.3058    2.3210    1.5965 H   0  0  0  0  0  0  0  0  0  0  0  0
  1  2  2  0  0  0  0
  1  6  1  0  0  0  0
  2  3  1  0  0  0  0
  3  4  2  0  0  0  0
  4 13  1  0  0  0  0
  5  4  1  0  0  0  0
  5 12  1  0  0  0  0
  6  5  2  0  0  0  0
  7  1  1  0  0  0  0
  8  2  1  0  0  0  0
  9 10  3  0  0  0  0
 11  6  1  0  0  0  0
M  RAD  1   3   2
M  END
