Coordinates from ORCA-job Ph-N2+-B3LYPG-aug-cc-pVDZ-scan-d09-49-n400
 OpenBabel09291715233D

 13 12  0  0  0  0  0  0  0  0999 V2000
   -2.0070    0.0977   -1.0880 C   0  0  0  0  0  0  0  0  0  0  0  0
   -0.5971    0.0061   -0.9896 C   0  0  0  0  0  0  0  0  0  0  0  0
   -0.1640    0.8385   -0.0133 C   0  0  0  0  0  0  0  0  0  0  0  0
   -0.6967    1.7130    0.8729 C   0  0  0  0  0  0  0  0  0  0  0  0
   -2.1031    1.7439    0.7084 C   0  0  0  0  0  0  0  0  0  0  0  0
   -2.7367    0.9505   -0.2534 C   0  0  0  0  0  0  0  0  0  0  0  0
   -2.4995   -0.5217   -1.8385 H   0  0  0  0  0  0  0  0  0  0  0  0
    0.0102   -0.6414   -1.6158 H   0  0  0  0  0  0  0  0  0  0  0  0
    1.8581    0.7505    0.1755 N   0  0  0  0  0  0  0  0  0  0  0  0
    2.9550    0.7028    0.2778 N   0  0  0  0  0  0  0  0  0  0  0  0
   -3.8203    0.9976   -0.3546 H   0  0  0  0  0  0  0  0  0  0  0  0
   -2.6706    2.4094    1.3599 H   0  0  0  0  0  0  0  0  0  0  0  0
   -0.1620    2.3108    1.6056 H   0  0  0  0  0  0  0  0  0  0  0  0
  1  2  2  0  0  0  0
  1  6  1  0  0  0  0
  2  3  1  0  0  0  0
  3  4  2  0  0  0  0
  4 13  1  0  0  0  0
  5  4  1  0  0  0  0
  5 12  1  0  0  0  0
  6  5  2  0  0  0  0
  7  1  1  0  0  0  0
  8  2  1  0  0  0  0
  9 10  3  0  0  0  0
 11  6  1  0  0  0  0
M  RAD  1   3   2
M  END
