Coordinates from ORCA-job Ph-N2+-B3LYPG-aug-cc-pVDZ-scan-d09-49-n400
 OpenBabel09291715233D

 13 12  0  0  0  0  0  0  0  0999 V2000
   -2.0286    0.0993   -1.0893 C   0  0  0  0  0  0  0  0  0  0  0  0
   -0.6129    0.0047   -0.9934 C   0  0  0  0  0  0  0  0  0  0  0  0
   -0.2112    0.8406   -0.0177 C   0  0  0  0  0  0  0  0  0  0  0  0
   -0.7127    1.7158    0.8737 C   0  0  0  0  0  0  0  0  0  0  0  0
   -2.1245    1.7442    0.7056 C   0  0  0  0  0  0  0  0  0  0  0  0
   -2.7583    0.9514   -0.2555 C   0  0  0  0  0  0  0  0  0  0  0  0
   -2.5150   -0.5230   -1.8420 H   0  0  0  0  0  0  0  0  0  0  0  0
   -0.0040   -0.6423   -1.6187 H   0  0  0  0  0  0  0  0  0  0  0  0
    1.9705    0.7457    0.1859 N   0  0  0  0  0  0  0  0  0  0  0  0
    3.0676    0.6979    0.2883 N   0  0  0  0  0  0  0  0  0  0  0  0
   -3.8418    0.9985   -0.3566 H   0  0  0  0  0  0  0  0  0  0  0  0
   -2.6863    2.4120    1.3605 H   0  0  0  0  0  0  0  0  0  0  0  0
   -0.1765    2.3129    1.6059 H   0  0  0  0  0  0  0  0  0  0  0  0
  1  2  2  0  0  0  0
  1  6  1  0  0  0  0
  2  3  1  0  0  0  0
  3  4  2  0  0  0  0
  4 13  1  0  0  0  0
  5  4  1  0  0  0  0
  5 12  1  0  0  0  0
  6  5  2  0  0  0  0
  7  1  1  0  0  0  0
  8  2  1  0  0  0  0
  9 10  3  0  0  0  0
 11  6  1  0  0  0  0
M  RAD  1   3   2
M  END
