Coordinates from ORCA-job Ph-N2+-B3LYPG-aug-cc-pVDZ-scan-d09-49-n400
 OpenBabel09291715233D

 13 12  0  0  0  0  0  0  0  0999 V2000
   -2.3400    0.1136   -1.1174 C   0  0  0  0  0  0  0  0  0  0  0  0
   -0.9083    0.0119   -1.0270 C   0  0  0  0  0  0  0  0  0  0  0  0
   -0.5917    0.8572   -0.0531 C   0  0  0  0  0  0  0  0  0  0  0  0
   -1.0089    1.7343    0.8523 C   0  0  0  0  0  0  0  0  0  0  0  0
   -2.4361    1.7570    0.6757 C   0  0  0  0  0  0  0  0  0  0  0  0
   -3.0693    0.9649   -0.2845 C   0  0  0  0  0  0  0  0  0  0  0  0
   -2.8115   -0.5156   -1.8758 H   0  0  0  0  0  0  0  0  0  0  0  0
   -0.2924   -0.6333   -1.6495 H   0  0  0  0  0  0  0  0  0  0  0  0
    3.6642    0.6718    0.3439 N   0  0  0  0  0  0  0  0  0  0  0  0
    4.7625    0.6240    0.4460 N   0  0  0  0  0  0  0  0  0  0  0  0
   -4.1530    1.0121   -0.3858 H   0  0  0  0  0  0  0  0  0  0  0  0
   -2.9837    2.4305    1.3388 H   0  0  0  0  0  0  0  0  0  0  0  0
   -0.4656    2.3292    1.5831 H   0  0  0  0  0  0  0  0  0  0  0  0
  1  2  2  0  0  0  0
  1  6  1  0  0  0  0
  2  3  1  0  0  0  0
  3  4  2  0  0  0  0
  4 13  1  0  0  0  0
  5  4  1  0  0  0  0
  5 12  1  0  0  0  0
  6  5  2  0  0  0  0
  7  1  1  0  0  0  0
  8  2  1  0  0  0  0
  9 10  3  0  0  0  0
 11  6  1  0  0  0  0
M  RAD  1   3   2
M  END
