Coordinates from ORCA-job Ph-N2+-B3LYPG-aug-cc-pVDZ-scan-d09-49-n400
 OpenBabel09291715233D

 13 12  0  0  0  0  0  0  0  0999 V2000
   -2.0745    0.1017   -1.0930 C   0  0  0  0  0  0  0  0  0  0  0  0
   -0.6499    0.0031   -1.0004 C   0  0  0  0  0  0  0  0  0  0  0  0
   -0.2972    0.8443   -0.0257 C   0  0  0  0  0  0  0  0  0  0  0  0
   -0.7501    1.7206    0.8737 C   0  0  0  0  0  0  0  0  0  0  0  0
   -2.1705    1.7457    0.7008 C   0  0  0  0  0  0  0  0  0  0  0  0
   -2.8040    0.9534   -0.2597 C   0  0  0  0  0  0  0  0  0  0  0  0
   -2.5531   -0.5242   -1.8488 H   0  0  0  0  0  0  0  0  0  0  0  0
   -0.0370   -0.6424   -1.6235 H   0  0  0  0  0  0  0  0  0  0  0  0
    2.2135    0.7351    0.2086 N   0  0  0  0  0  0  0  0  0  0  0  0
    3.3110    0.6873    0.3110 N   0  0  0  0  0  0  0  0  0  0  0  0
   -3.8876    1.0005   -0.3609 H   0  0  0  0  0  0  0  0  0  0  0  0
   -2.7247    2.4166    1.3601 H   0  0  0  0  0  0  0  0  0  0  0  0
   -0.2096    2.3159    1.6045 H   0  0  0  0  0  0  0  0  0  0  0  0
  1  2  2  0  0  0  0
  1  6  1  0  0  0  0
  2  3  1  0  0  0  0
  3  4  2  0  0  0  0
  4 13  1  0  0  0  0
  5  4  1  0  0  0  0
  5 12  1  0  0  0  0
  6  5  2  0  0  0  0
  7  1  1  0  0  0  0
  8  2  1  0  0  0  0
  9 10  3  0  0  0  0
 11  6  1  0  0  0  0
M  RAD  1   3   2
M  END
