Coordinates from ORCA-job Ph-N2+-B3LYPG-aug-cc-pVDZ-scan-d09-49-n400
 OpenBabel09291715233D

 13 12  0  0  0  0  0  0  0  0999 V2000
   -2.2022    0.1076   -1.1046 C   0  0  0  0  0  0  0  0  0  0  0  0
   -0.7713    0.0062   -1.0140 C   0  0  0  0  0  0  0  0  0  0  0  0
   -0.4514    0.8510   -0.0401 C   0  0  0  0  0  0  0  0  0  0  0  0
   -0.8718    1.7280    0.8647 C   0  0  0  0  0  0  0  0  0  0  0  0
   -2.2982    1.7510    0.6886 C   0  0  0  0  0  0  0  0  0  0  0  0
   -2.9316    0.9589   -0.2717 C   0  0  0  0  0  0  0  0  0  0  0  0
   -2.6748   -0.5212   -1.8626 H   0  0  0  0  0  0  0  0  0  0  0  0
   -0.1549   -0.6386   -1.6359 H   0  0  0  0  0  0  0  0  0  0  0  0
    2.9071    0.7049    0.2733 N   0  0  0  0  0  0  0  0  0  0  0  0
    4.0050    0.6571    0.3756 N   0  0  0  0  0  0  0  0  0  0  0  0
   -4.0152    1.0061   -0.3728 H   0  0  0  0  0  0  0  0  0  0  0  0
   -2.8467    2.4242    1.3512 H   0  0  0  0  0  0  0  0  0  0  0  0
   -0.3278    2.3224    1.5950 H   0  0  0  0  0  0  0  0  0  0  0  0
  1  2  2  0  0  0  0
  1  6  1  0  0  0  0
  2  3  1  0  0  0  0
  3  4  2  0  0  0  0
  4 13  1  0  0  0  0
  5  4  1  0  0  0  0
  5 12  1  0  0  0  0
  6  5  2  0  0  0  0
  7  1  1  0  0  0  0
  8  2  1  0  0  0  0
  9 10  3  0  0  0  0
 11  6  1  0  0  0  0
M  RAD  1   3   2
M  END
