Coordinates from ORCA-job Ph-N2+-B3LYPG-aug-cc-pVDZ-scan-d09-49-n400
 OpenBabel09291715233D

 13 12  0  0  0  0  0  0  0  0999 V2000
   -2.3144    0.1127   -1.1149 C   0  0  0  0  0  0  0  0  0  0  0  0
   -0.8828    0.0106   -1.0249 C   0  0  0  0  0  0  0  0  0  0  0  0
   -0.5632    0.8559   -0.0504 C   0  0  0  0  0  0  0  0  0  0  0  0
   -0.9835    1.7335    0.8550 C   0  0  0  0  0  0  0  0  0  0  0  0
   -2.4104    1.7557    0.6779 C   0  0  0  0  0  0  0  0  0  0  0  0
   -3.0435    0.9638   -0.2821 C   0  0  0  0  0  0  0  0  0  0  0  0
   -2.7861   -0.5165   -1.8732 H   0  0  0  0  0  0  0  0  0  0  0  0
   -0.2680   -0.6351   -1.6479 H   0  0  0  0  0  0  0  0  0  0  0  0
    3.5232    0.6780    0.3308 N   0  0  0  0  0  0  0  0  0  0  0  0
    4.6215    0.6301    0.4329 N   0  0  0  0  0  0  0  0  0  0  0  0
   -4.1272    1.0109   -0.3834 H   0  0  0  0  0  0  0  0  0  0  0  0
   -2.9583    2.4292    1.3409 H   0  0  0  0  0  0  0  0  0  0  0  0
   -0.4412    2.3288    1.5861 H   0  0  0  0  0  0  0  0  0  0  0  0
  1  2  2  0  0  0  0
  1  6  1  0  0  0  0
  2  3  1  0  0  0  0
  3  4  2  0  0  0  0
  4 13  1  0  0  0  0
  5  4  1  0  0  0  0
  5 12  1  0  0  0  0
  6  5  2  0  0  0  0
  7  1  1  0  0  0  0
  8  2  1  0  0  0  0
  9 10  3  0  0  0  0
 11  6  1  0  0  0  0
M  RAD  1   3   2
M  END
