Coordinates from ORCA-job Ph-N2+-B3LYPG-aug-cc-pVDZ-scan-d09-49-n400
 OpenBabel09291715233D

 13 12  0  0  0  0  0  0  0  0999 V2000
   -2.2317    0.1090   -1.1072 C   0  0  0  0  0  0  0  0  0  0  0  0
   -0.8006    0.0071   -1.0171 C   0  0  0  0  0  0  0  0  0  0  0  0
   -0.4792    0.8523   -0.0426 C   0  0  0  0  0  0  0  0  0  0  0  0
   -0.9012    1.7297    0.8624 C   0  0  0  0  0  0  0  0  0  0  0  0
   -2.3276    1.7521    0.6857 C   0  0  0  0  0  0  0  0  0  0  0  0
   -2.9608    0.9602   -0.2744 C   0  0  0  0  0  0  0  0  0  0  0  0
   -2.7040   -0.5199   -1.8653 H   0  0  0  0  0  0  0  0  0  0  0  0
   -0.1853   -0.6382   -1.6398 H   0  0  0  0  0  0  0  0  0  0  0  0
    3.0687    0.6978    0.2884 N   0  0  0  0  0  0  0  0  0  0  0  0
    4.1668    0.6500    0.3907 N   0  0  0  0  0  0  0  0  0  0  0  0
   -4.0445    1.0074   -0.3756 H   0  0  0  0  0  0  0  0  0  0  0  0
   -2.8760    2.4254    1.3484 H   0  0  0  0  0  0  0  0  0  0  0  0
   -0.3583    2.3247    1.5932 H   0  0  0  0  0  0  0  0  0  0  0  0
  1  2  2  0  0  0  0
  1  6  1  0  0  0  0
  2  3  1  0  0  0  0
  3  4  2  0  0  0  0
  4 13  1  0  0  0  0
  5  4  1  0  0  0  0
  5 12  1  0  0  0  0
  6  5  2  0  0  0  0
  7  1  1  0  0  0  0
  8  2  1  0  0  0  0
  9 10  3  0  0  0  0
 11  6  1  0  0  0  0
M  RAD  1   3   2
M  END
