Coordinates from ORCA-job Ph-N2+-B3LYPG-aug-cc-pVDZ-scan-d09-49-n400
 OpenBabel09291715233D

 13 12  0  0  0  0  0  0  0  0999 V2000
   -2.4136    0.1169   -1.1243 C   0  0  0  0  0  0  0  0  0  0  0  0
   -0.9817    0.0151   -1.0339 C   0  0  0  0  0  0  0  0  0  0  0  0
   -0.6655    0.8604   -0.0599 C   0  0  0  0  0  0  0  0  0  0  0  0
   -1.0825    1.7376    0.8456 C   0  0  0  0  0  0  0  0  0  0  0  0
   -2.5098    1.7602    0.6688 C   0  0  0  0  0  0  0  0  0  0  0  0
   -3.1429    0.9681   -0.2914 C   0  0  0  0  0  0  0  0  0  0  0  0
   -2.8849   -0.5125   -1.8828 H   0  0  0  0  0  0  0  0  0  0  0  0
   -0.3661   -0.6303   -1.6565 H   0  0  0  0  0  0  0  0  0  0  0  0
    4.0691    0.6542    0.3816 N   0  0  0  0  0  0  0  0  0  0  0  0
    5.1675    0.6063    0.4837 N   0  0  0  0  0  0  0  0  0  0  0  0
   -4.2266    1.0152   -0.3927 H   0  0  0  0  0  0  0  0  0  0  0  0
   -3.0572    2.4338    1.3320 H   0  0  0  0  0  0  0  0  0  0  0  0
   -0.5395    2.3327    1.5765 H   0  0  0  0  0  0  0  0  0  0  0  0
  1  2  2  0  0  0  0
  1  6  1  0  0  0  0
  2  3  1  0  0  0  0
  3  4  2  0  0  0  0
  4 13  1  0  0  0  0
  5  4  1  0  0  0  0
  5 12  1  0  0  0  0
  6  5  2  0  0  0  0
  7  1  1  0  0  0  0
  8  2  1  0  0  0  0
  9 10  3  0  0  0  0
 11  6  1  0  0  0  0
M  RAD  1   3   2
M  END
