Coordinates from ORCA-job Ph-N2+-B3LYPG-aug-cc-pVDZ-scan-d09-49-n400
 OpenBabel09291715233D

 13 13  0  0  0  0  0  0  0  0999 V2000
   -1.8931    0.0889   -1.0814 C   0  0  0  0  0  0  0  0  0  0  0  0
   -0.5241    0.0138   -0.9699 C   0  0  0  0  0  0  0  0  0  0  0  0
    0.1869    0.8206    0.0219 C   0  0  0  0  0  0  0  0  0  0  0  0
   -0.6224    1.6979    0.8678 C   0  0  0  0  0  0  0  0  0  0  0  0
   -1.9896    1.7426    0.7231 C   0  0  0  0  0  0  0  0  0  0  0  0
   -2.6298    0.9455   -0.2432 C   0  0  0  0  0  0  0  0  0  0  0  0
   -2.4021   -0.5219   -1.8265 H   0  0  0  0  0  0  0  0  0  0  0  0
    0.0793   -0.6381   -1.6027 H   0  0  0  0  0  0  0  0  0  0  0  0
    1.2022    0.7786    0.1147 N   0  0  0  0  0  0  0  0  0  0  0  0
    2.3385    0.7318    0.2183 N   0  0  0  0  0  0  0  0  0  0  0  0
   -3.7145    0.9934   -0.3451 H   0  0  0  0  0  0  0  0  0  0  0  0
   -2.5728    2.4027    1.3647 H   0  0  0  0  0  0  0  0  0  0  0  0
   -0.0923    2.3018    1.6052 H   0  0  0  0  0  0  0  0  0  0  0  0
  1  2  2  0  0  0  0
  1  6  1  0  0  0  0
  2  3  1  0  0  0  0
  3  9  1  0  0  0  0
  3  4  2  0  0  0  0
  4 13  1  0  0  0  0
  5  4  1  0  0  0  0
  5 12  1  0  0  0  0
  6  5  2  0  0  0  0
  7  1  1  0  0  0  0
  8  2  1  0  0  0  0
  9 10  1  0  0  0  0
 11  6  1  0  0  0  0
M  RAD  2   9   2  10   3
M  END
