Coordinates from ORCA-job p-NO2-Ph-N2+-B3LYPG-aug-cc-pVDZ-scan-d09-49-n400
 OpenBabel09291715233D

 15 14  0  0  0  0  0  0  0  0999 V2000
   -2.2329   -0.2121   -0.6166 C   0  0  0  0  0  0  0  0  0  0  0  0
   -0.8100   -0.2567   -0.7400 C   0  0  0  0  0  0  0  0  0  0  0  0
   -0.4050    0.8669   -0.1513 C   0  0  0  0  0  0  0  0  0  0  0  0
   -0.7237    1.9906    0.4879 C   0  0  0  0  0  0  0  0  0  0  0  0
   -2.1500    1.9469    0.5630 C   0  0  0  0  0  0  0  0  0  0  0  0
   -2.8511    0.8677    0.0191 C   0  0  0  0  0  0  0  0  0  0  0  0
   -2.8166   -1.0377   -1.0294 H   0  0  0  0  0  0  0  0  0  0  0  0
   -0.2457   -1.0553   -1.2177 H   0  0  0  0  0  0  0  0  0  0  0  0
   -0.0981    2.7889    0.8827 H   0  0  0  0  0  0  0  0  0  0  0  0
   -2.6703    2.7730    1.0527 H   0  0  0  0  0  0  0  0  0  0  0  0
   -4.3378    0.8682    0.1226 N   0  0  0  0  0  0  0  0  0  0  0  0
   -4.9141   -0.0947   -0.3574 O   0  0  0  0  0  0  0  0  0  0  0  0
   -4.8404    1.8243    0.6909 O   0  0  0  0  0  0  0  0  0  0  0  0
    2.8031    0.8660   -0.3745 N   0  0  0  0  0  0  0  0  0  0  0  0
    3.9041    0.8657   -0.4509 N   0  0  0  0  0  0  0  0  0  0  0  0
  1  6  1  0  0  0  0
  2  1  2  0  0  0  0
  2  3  1  0  0  0  0
  3  4  2  0  0  0  0
  4  5  1  0  0  0  0
  4  9  1  0  0  0  0
  5 10  1  0  0  0  0
  6 11  1  0  0  0  0
  6  5  2  0  0  0  0
  7  1  1  0  0  0  0
  8  2  1  0  0  0  0
 11 13  2  0  0  0  0
 12 11  2  0  0  0  0
 15 14  3  0  0  0  0
M  RAD  1   3   2
M  END
