Coordinates from ORCA-job p-NO2-Ph-N2+-B3LYPG-aug-cc-pVDZ-scan-d09-49-n400
 OpenBabel09291715233D

 15 14  0  0  0  0  0  0  0  0999 V2000
   -2.1704   -0.2125   -0.6199 C   0  0  0  0  0  0  0  0  0  0  0  0
   -0.7500   -0.2551   -0.7428 C   0  0  0  0  0  0  0  0  0  0  0  0
   -0.3271    0.8667   -0.1564 C   0  0  0  0  0  0  0  0  0  0  0  0
   -0.6640    1.9886    0.4832 C   0  0  0  0  0  0  0  0  0  0  0  0
   -2.0876    1.9463    0.5596 C   0  0  0  0  0  0  0  0  0  0  0  0
   -2.7884    0.8669    0.0160 C   0  0  0  0  0  0  0  0  0  0  0  0
   -2.7558   -1.0370   -1.0317 H   0  0  0  0  0  0  0  0  0  0  0  0
   -0.1892   -1.0549   -1.2212 H   0  0  0  0  0  0  0  0  0  0  0  0
   -0.0418    2.7884    0.8787 H   0  0  0  0  0  0  0  0  0  0  0  0
   -2.6097    2.7709    1.0489 H   0  0  0  0  0  0  0  0  0  0  0  0
   -4.2752    0.8671    0.1202 N   0  0  0  0  0  0  0  0  0  0  0  0
   -4.8527   -0.0927   -0.3650 O   0  0  0  0  0  0  0  0  0  0  0  0
   -4.7791    1.8259    0.6831 O   0  0  0  0  0  0  0  0  0  0  0  0
    2.4009    0.8665   -0.3474 N   0  0  0  0  0  0  0  0  0  0  0  0
    3.5016    0.8664   -0.4243 N   0  0  0  0  0  0  0  0  0  0  0  0
  1  6  1  0  0  0  0
  2  1  2  0  0  0  0
  2  3  1  0  0  0  0
  3  4  2  0  0  0  0
  4  5  1  0  0  0  0
  4  9  1  0  0  0  0
  5 10  1  0  0  0  0
  6 11  1  0  0  0  0
  6  5  2  0  0  0  0
  7  1  1  0  0  0  0
  8  2  1  0  0  0  0
 11 13  2  0  0  0  0
 12 11  2  0  0  0  0
 15 14  3  0  0  0  0
M  RAD  1   3   2
M  END
