Coordinates from ORCA-job p-NO2-Ph-N2+-B3LYPG-aug-cc-pVDZ-scan-d09-49-n400
 OpenBabel09291715233D

 15 14  0  0  0  0  0  0  0  0999 V2000
   -2.3832   -0.2128   -0.6051 C   0  0  0  0  0  0  0  0  0  0  0  0
   -0.9594   -0.2581   -0.7299 C   0  0  0  0  0  0  0  0  0  0  0  0
   -0.5601    0.8661   -0.1406 C   0  0  0  0  0  0  0  0  0  0  0  0
   -0.8724    1.9906    0.4987 C   0  0  0  0  0  0  0  0  0  0  0  0
   -2.2997    1.9461    0.5744 C   0  0  0  0  0  0  0  0  0  0  0  0
   -3.0012    0.8668    0.0311 C   0  0  0  0  0  0  0  0  0  0  0  0
   -2.9662   -1.0393   -1.0180 H   0  0  0  0  0  0  0  0  0  0  0  0
   -0.3958   -1.0575   -1.2084 H   0  0  0  0  0  0  0  0  0  0  0  0
   -0.2469    2.7896    0.8935 H   0  0  0  0  0  0  0  0  0  0  0  0
   -2.8186    2.7729    1.0648 H   0  0  0  0  0  0  0  0  0  0  0  0
   -4.4879    0.8673    0.1356 N   0  0  0  0  0  0  0  0  0  0  0  0
   -5.0644   -0.0925   -0.3503 O   0  0  0  0  0  0  0  0  0  0  0  0
   -4.9901    1.8269    0.6982 O   0  0  0  0  0  0  0  0  0  0  0  0
    3.7780    0.8676   -0.4432 N   0  0  0  0  0  0  0  0  0  0  0  0
    4.8794    0.8678   -0.5197 N   0  0  0  0  0  0  0  0  0  0  0  0
  1  6  1  0  0  0  0
  2  1  2  0  0  0  0
  2  3  1  0  0  0  0
  3  4  2  0  0  0  0
  4  5  1  0  0  0  0
  4  9  1  0  0  0  0
  5 10  1  0  0  0  0
  6 11  1  0  0  0  0
  6  5  2  0  0  0  0
  7  1  1  0  0  0  0
  8  2  1  0  0  0  0
 11 13  2  0  0  0  0
 12 11  2  0  0  0  0
 15 14  3  0  0  0  0
M  RAD  1   3   2
M  END
