Coordinates from ORCA-job p-NO2-Ph-N2+-B3LYPG-aug-cc-pVDZ-scan-d09-49-n400
 OpenBabel09291715233D

 15 14  0  0  0  0  0  0  0  0999 V2000
   -2.3688   -0.2126   -0.6059 C   0  0  0  0  0  0  0  0  0  0  0  0
   -0.9454   -0.2582   -0.7309 C   0  0  0  0  0  0  0  0  0  0  0  0
   -0.5428    0.8662   -0.1417 C   0  0  0  0  0  0  0  0  0  0  0  0
   -0.8585    1.9908    0.4979 C   0  0  0  0  0  0  0  0  0  0  0  0
   -2.2854    1.9459    0.5734 C   0  0  0  0  0  0  0  0  0  0  0  0
   -2.9868    0.8668    0.0301 C   0  0  0  0  0  0  0  0  0  0  0  0
   -2.9518   -1.0390   -1.0188 H   0  0  0  0  0  0  0  0  0  0  0  0
   -0.3829   -1.0582   -1.2096 H   0  0  0  0  0  0  0  0  0  0  0  0
   -0.2341    2.7905    0.8932 H   0  0  0  0  0  0  0  0  0  0  0  0
   -2.8045    2.7726    1.0637 H   0  0  0  0  0  0  0  0  0  0  0  0
   -4.4735    0.8671    0.1347 N   0  0  0  0  0  0  0  0  0  0  0  0
   -5.0501   -0.0924   -0.3516 O   0  0  0  0  0  0  0  0  0  0  0  0
   -4.9759    1.8269    0.6968 O   0  0  0  0  0  0  0  0  0  0  0  0
    3.6853    0.8675   -0.4369 N   0  0  0  0  0  0  0  0  0  0  0  0
    4.7867    0.8676   -0.5135 N   0  0  0  0  0  0  0  0  0  0  0  0
  1  6  1  0  0  0  0
  2  1  2  0  0  0  0
  2  3  1  0  0  0  0
  3  4  2  0  0  0  0
  4  5  1  0  0  0  0
  4  9  1  0  0  0  0
  5 10  1  0  0  0  0
  6 11  1  0  0  0  0
  6  5  2  0  0  0  0
  7  1  1  0  0  0  0
  8  2  1  0  0  0  0
 11 13  2  0  0  0  0
 12 11  2  0  0  0  0
 15 14  3  0  0  0  0
M  RAD  1   3   2
M  END
