Coordinates from ORCA-job p-NO2-Ph-N2+-B3LYPG-aug-cc-pVDZ-scan-d09-49-n400
 OpenBabel09291715233D

 15 14  0  0  0  0  0  0  0  0999 V2000
   -2.3875   -0.2126   -0.6046 C   0  0  0  0  0  0  0  0  0  0  0  0
   -0.9641   -0.2584   -0.7297 C   0  0  0  0  0  0  0  0  0  0  0  0
   -0.5616    0.8661   -0.1405 C   0  0  0  0  0  0  0  0  0  0  0  0
   -0.8770    1.9907    0.4991 C   0  0  0  0  0  0  0  0  0  0  0  0
   -2.3039    1.9458    0.5747 C   0  0  0  0  0  0  0  0  0  0  0  0
   -3.0055    0.8668    0.0314 C   0  0  0  0  0  0  0  0  0  0  0  0
   -2.9705   -1.0391   -1.0175 H   0  0  0  0  0  0  0  0  0  0  0  0
   -0.4018   -1.0585   -1.2085 H   0  0  0  0  0  0  0  0  0  0  0  0
   -0.2527    2.7905    0.8944 H   0  0  0  0  0  0  0  0  0  0  0  0
   -2.8229    2.7726    1.0650 H   0  0  0  0  0  0  0  0  0  0  0  0
   -4.4922    0.8672    0.1361 N   0  0  0  0  0  0  0  0  0  0  0  0
   -5.0688   -0.0923   -0.3502 O   0  0  0  0  0  0  0  0  0  0  0  0
   -4.9944    1.8270    0.6982 O   0  0  0  0  0  0  0  0  0  0  0  0
    3.8065    0.8677   -0.4452 N   0  0  0  0  0  0  0  0  0  0  0  0
    4.9080    0.8679   -0.5217 N   0  0  0  0  0  0  0  0  0  0  0  0
  1  6  1  0  0  0  0
  2  1  2  0  0  0  0
  2  3  1  0  0  0  0
  3  4  2  0  0  0  0
  4  5  1  0  0  0  0
  4  9  1  0  0  0  0
  5 10  1  0  0  0  0
  6 11  1  0  0  0  0
  6  5  2  0  0  0  0
  7  1  1  0  0  0  0
  8  2  1  0  0  0  0
 11 13  2  0  0  0  0
 12 11  2  0  0  0  0
 15 14  3  0  0  0  0
M  RAD  1   3   2
M  END
