Coordinates from ORCA-job p-NO2-Ph-N2+-B3LYPG-aug-cc-pVDZ-scan-d09-49-n400
 OpenBabel09291715233D

 15 14  0  0  0  0  0  0  0  0999 V2000
   -2.3725   -0.2128   -0.6059 C   0  0  0  0  0  0  0  0  0  0  0  0
   -0.9487   -0.2580   -0.7306 C   0  0  0  0  0  0  0  0  0  0  0  0
   -0.5493    0.8662   -0.1413 C   0  0  0  0  0  0  0  0  0  0  0  0
   -0.8618    1.9907    0.4980 C   0  0  0  0  0  0  0  0  0  0  0  0
   -2.2891    1.9461    0.5737 C   0  0  0  0  0  0  0  0  0  0  0  0
   -2.9906    0.8668    0.0303 C   0  0  0  0  0  0  0  0  0  0  0  0
   -2.9554   -1.0393   -1.0188 H   0  0  0  0  0  0  0  0  0  0  0  0
   -0.3850   -1.0573   -1.2090 H   0  0  0  0  0  0  0  0  0  0  0  0
   -0.2363    2.7896    0.8928 H   0  0  0  0  0  0  0  0  0  0  0  0
   -2.8080    2.7729    1.0641 H   0  0  0  0  0  0  0  0  0  0  0  0
   -4.4773    0.8672    0.1348 N   0  0  0  0  0  0  0  0  0  0  0  0
   -5.0537   -0.0925   -0.3510 O   0  0  0  0  0  0  0  0  0  0  0  0
   -4.9795    1.8268    0.6974 O   0  0  0  0  0  0  0  0  0  0  0  0
    3.7087    0.8675   -0.4384 N   0  0  0  0  0  0  0  0  0  0  0  0
    4.8101    0.8676   -0.5150 N   0  0  0  0  0  0  0  0  0  0  0  0
  1  6  1  0  0  0  0
  2  1  2  0  0  0  0
  2  3  1  0  0  0  0
  3  4  2  0  0  0  0
  4  5  1  0  0  0  0
  4  9  1  0  0  0  0
  5 10  1  0  0  0  0
  6 11  1  0  0  0  0
  6  5  2  0  0  0  0
  7  1  1  0  0  0  0
  8  2  1  0  0  0  0
 11 13  2  0  0  0  0
 12 11  2  0  0  0  0
 15 14  3  0  0  0  0
M  RAD  1   3   2
M  END
