Coordinates from ORCA-job p-NO2-Ph-N2+-B3LYPG-aug-cc-pVDZ-scan-d09-49-n400
 OpenBabel09291715233D

 15 14  0  0  0  0  0  0  0  0999 V2000
   -2.3261   -0.2125   -0.6089 C   0  0  0  0  0  0  0  0  0  0  0  0
   -0.9027   -0.2579   -0.7336 C   0  0  0  0  0  0  0  0  0  0  0  0
   -0.4996    0.8665   -0.1446 C   0  0  0  0  0  0  0  0  0  0  0  0
   -0.8161    1.9910    0.4951 C   0  0  0  0  0  0  0  0  0  0  0  0
   -2.2429    1.9460    0.5705 C   0  0  0  0  0  0  0  0  0  0  0  0
   -2.9442    0.8668    0.0272 C   0  0  0  0  0  0  0  0  0  0  0  0
   -2.9091   -1.0389   -1.0217 H   0  0  0  0  0  0  0  0  0  0  0  0
   -0.3399   -1.0576   -1.2122 H   0  0  0  0  0  0  0  0  0  0  0  0
   -0.1917    2.7905    0.8903 H   0  0  0  0  0  0  0  0  0  0  0  0
   -2.7623    2.7725    1.0608 H   0  0  0  0  0  0  0  0  0  0  0  0
   -4.4309    0.8670    0.1316 N   0  0  0  0  0  0  0  0  0  0  0  0
   -5.0074   -0.0925   -0.3547 O   0  0  0  0  0  0  0  0  0  0  0  0
   -4.9335    1.8267    0.6937 O   0  0  0  0  0  0  0  0  0  0  0  0
    3.4084    0.8670   -0.4178 N   0  0  0  0  0  0  0  0  0  0  0  0
    4.5096    0.8671   -0.4945 N   0  0  0  0  0  0  0  0  0  0  0  0
  1  6  1  0  0  0  0
  2  1  2  0  0  0  0
  2  3  1  0  0  0  0
  3  4  2  0  0  0  0
  4  5  1  0  0  0  0
  4  9  1  0  0  0  0
  5 10  1  0  0  0  0
  6 11  1  0  0  0  0
  6  5  2  0  0  0  0
  7  1  1  0  0  0  0
  8  2  1  0  0  0  0
 11 13  2  0  0  0  0
 12 11  2  0  0  0  0
 15 14  3  0  0  0  0
M  RAD  1   3   2
M  END
