Coordinates from ORCA-job p-NO2-Ph-N2+-B3LYPG-aug-cc-pVDZ-scan-d09-49-n400
 OpenBabel09291715233D

 15 14  0  0  0  0  0  0  0  0999 V2000
   -2.2820   -0.2126   -0.6118 C   0  0  0  0  0  0  0  0  0  0  0  0
   -0.8588   -0.2577   -0.7365 C   0  0  0  0  0  0  0  0  0  0  0  0
   -0.4554    0.8666   -0.1475 C   0  0  0  0  0  0  0  0  0  0  0  0
   -0.7724    1.9909    0.4921 C   0  0  0  0  0  0  0  0  0  0  0  0
   -2.1990    1.9460    0.5676 C   0  0  0  0  0  0  0  0  0  0  0  0
   -2.9001    0.8667    0.0243 C   0  0  0  0  0  0  0  0  0  0  0  0
   -2.8653   -1.0388   -1.0244 H   0  0  0  0  0  0  0  0  0  0  0  0
   -0.2953   -1.0569   -1.2149 H   0  0  0  0  0  0  0  0  0  0  0  0
   -0.1475    2.7900    0.8870 H   0  0  0  0  0  0  0  0  0  0  0  0
   -2.7189    2.7722    1.0578 H   0  0  0  0  0  0  0  0  0  0  0  0
   -4.3868    0.8668    0.1287 N   0  0  0  0  0  0  0  0  0  0  0  0
   -4.9635   -0.0923   -0.3583 O   0  0  0  0  0  0  0  0  0  0  0  0
   -4.8897    1.8268    0.6901 O   0  0  0  0  0  0  0  0  0  0  0  0
    3.1225    0.8668   -0.3981 N   0  0  0  0  0  0  0  0  0  0  0  0
    4.2237    0.8668   -0.4750 N   0  0  0  0  0  0  0  0  0  0  0  0
  1  6  1  0  0  0  0
  2  1  2  0  0  0  0
  2  3  1  0  0  0  0
  3  4  2  0  0  0  0
  4  5  1  0  0  0  0
  4  9  1  0  0  0  0
  5 10  1  0  0  0  0
  6 11  1  0  0  0  0
  6  5  2  0  0  0  0
  7  1  1  0  0  0  0
  8  2  1  0  0  0  0
 11 13  2  0  0  0  0
 12 11  2  0  0  0  0
 15 14  3  0  0  0  0
M  RAD  1   3   2
M  END
