Coordinates from ORCA-job p-NO2-Ph-N2+-B3LYPG-aug-cc-pVDZ-scan-d09-49-n400
 OpenBabel09291715233D

 15 14  0  0  0  0  0  0  0  0999 V2000
   -2.4224   -0.2127   -0.6023 C   0  0  0  0  0  0  0  0  0  0  0  0
   -0.9989   -0.2587   -0.7275 C   0  0  0  0  0  0  0  0  0  0  0  0
   -0.5964    0.8657   -0.1383 C   0  0  0  0  0  0  0  0  0  0  0  0
   -0.9114    1.9905    0.5014 C   0  0  0  0  0  0  0  0  0  0  0  0
   -2.3384    1.9457    0.5770 C   0  0  0  0  0  0  0  0  0  0  0  0
   -3.0401    0.8668    0.0339 C   0  0  0  0  0  0  0  0  0  0  0  0
   -3.0055   -1.0392   -1.0151 H   0  0  0  0  0  0  0  0  0  0  0  0
   -0.4369   -1.0590   -1.2064 H   0  0  0  0  0  0  0  0  0  0  0  0
   -0.2871    2.7903    0.8967 H   0  0  0  0  0  0  0  0  0  0  0  0
   -2.8571    2.7726    1.0675 H   0  0  0  0  0  0  0  0  0  0  0  0
   -4.5269    0.8674    0.1387 N   0  0  0  0  0  0  0  0  0  0  0  0
   -5.1036   -0.0920   -0.3476 O   0  0  0  0  0  0  0  0  0  0  0  0
   -5.0289    1.8273    0.7008 O   0  0  0  0  0  0  0  0  0  0  0  0
    4.0318    0.8683   -0.4606 N   0  0  0  0  0  0  0  0  0  0  0  0
    5.1333    0.8686   -0.5370 N   0  0  0  0  0  0  0  0  0  0  0  0
  1  6  1  0  0  0  0
  2  1  2  0  0  0  0
  2  3  1  0  0  0  0
  3  4  2  0  0  0  0
  4  5  1  0  0  0  0
  4  9  1  0  0  0  0
  5 10  1  0  0  0  0
  6 11  1  0  0  0  0
  6  5  2  0  0  0  0
  7  1  1  0  0  0  0
  8  2  1  0  0  0  0
 11 13  2  0  0  0  0
 12 11  2  0  0  0  0
 15 14  3  0  0  0  0
M  RAD  1   3   2
M  END
