Coordinates from ORCA-job p-NO2-Ph-N2+-B3LYPG-aug-cc-pVDZ-scan-d09-49-n400
 OpenBabel09291715233D

 15 14  0  0  0  0  0  0  0  0999 V2000
   -2.2794   -0.2126   -0.6122 C   0  0  0  0  0  0  0  0  0  0  0  0
   -0.8561   -0.2578   -0.7368 C   0  0  0  0  0  0  0  0  0  0  0  0
   -0.4526    0.8666   -0.1477 C   0  0  0  0  0  0  0  0  0  0  0  0
   -0.7697    1.9911    0.4919 C   0  0  0  0  0  0  0  0  0  0  0  0
   -2.1964    1.9461    0.5673 C   0  0  0  0  0  0  0  0  0  0  0  0
   -2.8975    0.8668    0.0238 C   0  0  0  0  0  0  0  0  0  0  0  0
   -2.8629   -1.0386   -1.0248 H   0  0  0  0  0  0  0  0  0  0  0  0
   -0.2926   -1.0569   -1.2151 H   0  0  0  0  0  0  0  0  0  0  0  0
   -0.1448    2.7902    0.8868 H   0  0  0  0  0  0  0  0  0  0  0  0
   -2.7164    2.7723    1.0574 H   0  0  0  0  0  0  0  0  0  0  0  0
   -4.3842    0.8670    0.1282 N   0  0  0  0  0  0  0  0  0  0  0  0
   -4.9608   -0.0927   -0.3579 O   0  0  0  0  0  0  0  0  0  0  0  0
   -4.8870    1.8265    0.6905 O   0  0  0  0  0  0  0  0  0  0  0  0
    3.1053    0.8667   -0.3967 N   0  0  0  0  0  0  0  0  0  0  0  0
    4.2065    0.8667   -0.4735 N   0  0  0  0  0  0  0  0  0  0  0  0
  1  6  1  0  0  0  0
  2  1  2  0  0  0  0
  2  3  1  0  0  0  0
  3  4  2  0  0  0  0
  4  5  1  0  0  0  0
  4  9  1  0  0  0  0
  5 10  1  0  0  0  0
  6 11  1  0  0  0  0
  6  5  2  0  0  0  0
  7  1  1  0  0  0  0
  8  2  1  0  0  0  0
 11 13  2  0  0  0  0
 12 11  2  0  0  0  0
 15 14  3  0  0  0  0
M  RAD  1   3   2
M  END
