Coordinates from ORCA-job p-NO2-Ph-N2+-B3LYPG-aug-cc-pVDZ-scan-d09-49-n400
 OpenBabel09291715233D

 15 15  0  0  0  0  0  0  0  0999 V2000
   -2.0345   -0.2141   -0.6294 C   0  0  0  0  0  0  0  0  0  0  0  0
   -0.6448   -0.2303   -0.7362 C   0  0  0  0  0  0  0  0  0  0  0  0
    0.0159    0.8667   -0.1803 C   0  0  0  0  0  0  0  0  0  0  0  0
   -0.5607    1.9636    0.4625 C   0  0  0  0  0  0  0  0  0  0  0  0
   -1.9516    1.9471    0.5514 C   0  0  0  0  0  0  0  0  0  0  0  0
   -2.6504    0.8665    0.0073 C   0  0  0  0  0  0  0  0  0  0  0  0
   -2.6406   -1.0237   -1.0313 H   0  0  0  0  0  0  0  0  0  0  0  0
   -0.1132   -1.0463   -1.2217 H   0  0  0  0  0  0  0  0  0  0  0  0
    0.0335    2.7797    0.8688 H   0  0  0  0  0  0  0  0  0  0  0  0
   -2.4956    2.7566    1.0342 H   0  0  0  0  0  0  0  0  0  0  0  0
   -4.1439    0.8663    0.1124 N   0  0  0  0  0  0  0  0  0  0  0  0
   -4.7243   -0.0904   -0.3758 O   0  0  0  0  0  0  0  0  0  0  0  0
   -4.6507    1.8262    0.6711 O   0  0  0  0  0  0  0  0  0  0  0  0
    1.5337    0.8668   -0.2871 N   0  0  0  0  0  0  0  0  0  0  0  0
    2.6386    0.8669   -0.3648 N   0  0  0  0  0  0  0  0  0  0  0  0
  1  6  1  0  0  0  0
  2  1  2  0  0  0  0
  2  3  1  0  0  0  0
  3  4  2  0  0  0  0
  4  5  1  0  0  0  0
  4  9  1  0  0  0  0
  5 10  1  0  0  0  0
  6 11  1  0  0  0  0
  6  5  2  0  0  0  0
  7  1  1  0  0  0  0
  8  2  1  0  0  0  0
 11 13  2  0  0  0  0
 12 11  2  0  0  0  0
 14  3  1  0  0  0  0
 15 14  1  0  0  0  0
M  RAD  2  14   2  15   3
M  END
