Coordinates from ORCA-job p-NO2-Ph-N2+-B3LYPG-aug-cc-pVDZ-scan-d09-49-n400
 OpenBabel09291715233D

 15 15  0  0  0  0  0  0  0  0999 V2000
   -1.9975   -0.2138   -0.6326 C   0  0  0  0  0  0  0  0  0  0  0  0
   -0.6204   -0.2263   -0.7359 C   0  0  0  0  0  0  0  0  0  0  0  0
    0.1486    0.8667   -0.1896 C   0  0  0  0  0  0  0  0  0  0  0  0
   -0.5366    1.9597    0.4585 C   0  0  0  0  0  0  0  0  0  0  0  0
   -1.9146    1.9474    0.5483 C   0  0  0  0  0  0  0  0  0  0  0  0
   -2.6166    0.8669    0.0041 C   0  0  0  0  0  0  0  0  0  0  0  0
   -2.6026   -1.0244   -1.0353 H   0  0  0  0  0  0  0  0  0  0  0  0
   -0.0914   -1.0455   -1.2227 H   0  0  0  0  0  0  0  0  0  0  0  0
    0.0553    2.7789    0.8669 H   0  0  0  0  0  0  0  0  0  0  0  0
   -2.4575    2.7581    1.0314 H   0  0  0  0  0  0  0  0  0  0  0  0
   -4.1120    0.8670    0.1090 N   0  0  0  0  0  0  0  0  0  0  0  0
   -4.6885   -0.0925   -0.3773 O   0  0  0  0  0  0  0  0  0  0  0  0
   -4.6149    1.8264    0.6709 O   0  0  0  0  0  0  0  0  0  0  0  0
    1.2664    0.8665   -0.2679 N   0  0  0  0  0  0  0  0  0  0  0  0
    2.3937    0.8664   -0.3468 N   0  0  0  0  0  0  0  0  0  0  0  0
  1  6  1  0  0  0  0
  2  1  2  0  0  0  0
  2  3  1  0  0  0  0
  3  4  2  0  0  0  0
  4  5  1  0  0  0  0
  4  9  1  0  0  0  0
  5 10  1  0  0  0  0
  6 11  1  0  0  0  0
  6  5  2  0  0  0  0
  7  1  1  0  0  0  0
  8  2  1  0  0  0  0
 11 13  2  0  0  0  0
 12 11  2  0  0  0  0
 14  3  1  0  0  0  0
 15 14  1  0  0  0  0
M  RAD  2  14   2  15   3
M  END
