Coordinates from ORCA-job p-NO2-Ph-N2+-B3LYPG-aug-cc-pVDZ-scan-d09-49-n400
 OpenBabel09291715233D

 15 14  0  0  0  0  0  0  0  0999 V2000
   -2.4020   -0.2129   -0.6039 C   0  0  0  0  0  0  0  0  0  0  0  0
   -0.9782   -0.2583   -0.7287 C   0  0  0  0  0  0  0  0  0  0  0  0
   -0.5788    0.8660   -0.1395 C   0  0  0  0  0  0  0  0  0  0  0  0
   -0.8909    1.9905    0.4999 C   0  0  0  0  0  0  0  0  0  0  0  0
   -2.3182    1.9461    0.5757 C   0  0  0  0  0  0  0  0  0  0  0  0
   -3.0199    0.8668    0.0323 C   0  0  0  0  0  0  0  0  0  0  0  0
   -2.9849   -1.0393   -1.0167 H   0  0  0  0  0  0  0  0  0  0  0  0
   -0.4147   -1.0577   -1.2072 H   0  0  0  0  0  0  0  0  0  0  0  0
   -0.2654    2.7896    0.8947 H   0  0  0  0  0  0  0  0  0  0  0  0
   -2.8370    2.7729    1.0661 H   0  0  0  0  0  0  0  0  0  0  0  0
   -4.5066    0.8673    0.1370 N   0  0  0  0  0  0  0  0  0  0  0  0
   -5.0831   -0.0924   -0.3488 O   0  0  0  0  0  0  0  0  0  0  0  0
   -5.0086    1.8270    0.6996 O   0  0  0  0  0  0  0  0  0  0  0  0
    3.8993    0.8679   -0.4515 N   0  0  0  0  0  0  0  0  0  0  0  0
    5.0007    0.8681   -0.5279 N   0  0  0  0  0  0  0  0  0  0  0  0
  1  6  1  0  0  0  0
  2  1  2  0  0  0  0
  2  3  1  0  0  0  0
  3  4  2  0  0  0  0
  4  5  1  0  0  0  0
  4  9  1  0  0  0  0
  5 10  1  0  0  0  0
  6 11  1  0  0  0  0
  6  5  2  0  0  0  0
  7  1  1  0  0  0  0
  8  2  1  0  0  0  0
 11 13  2  0  0  0  0
 12 11  2  0  0  0  0
 15 14  3  0  0  0  0
M  RAD  1   3   2
M  END
