Coordinates from ORCA-job p-NO2-Ph-N2+-B3LYPG-aug-cc-pVDZ-scan-d09-49-n400
 OpenBabel09291715233D

 15 14  0  0  0  0  0  0  0  0999 V2000
   -2.2437   -0.2125   -0.6146 C   0  0  0  0  0  0  0  0  0  0  0  0
   -0.8211   -0.2572   -0.7389 C   0  0  0  0  0  0  0  0  0  0  0  0
   -0.4138    0.8667   -0.1504 C   0  0  0  0  0  0  0  0  0  0  0  0
   -0.7347    1.9906    0.4892 C   0  0  0  0  0  0  0  0  0  0  0  0
   -2.1608    1.9461    0.5648 C   0  0  0  0  0  0  0  0  0  0  0  0
   -2.8618    0.8668    0.0214 C   0  0  0  0  0  0  0  0  0  0  0  0
   -2.8273   -1.0384   -1.0271 H   0  0  0  0  0  0  0  0  0  0  0  0
   -0.2580   -1.0565   -1.2173 H   0  0  0  0  0  0  0  0  0  0  0  0
   -0.1103    2.7898    0.8843 H   0  0  0  0  0  0  0  0  0  0  0  0
   -2.6809    2.7720    1.0548 H   0  0  0  0  0  0  0  0  0  0  0  0
   -4.3485    0.8669    0.1257 N   0  0  0  0  0  0  0  0  0  0  0  0
   -4.9253   -0.0926   -0.3605 O   0  0  0  0  0  0  0  0  0  0  0  0
   -4.8516    1.8265    0.6878 O   0  0  0  0  0  0  0  0  0  0  0  0
    2.8742    0.8666   -0.3806 N   0  0  0  0  0  0  0  0  0  0  0  0
    3.9752    0.8666   -0.4575 N   0  0  0  0  0  0  0  0  0  0  0  0
  1  6  1  0  0  0  0
  2  1  2  0  0  0  0
  2  3  1  0  0  0  0
  3  4  2  0  0  0  0
  4  5  1  0  0  0  0
  4  9  1  0  0  0  0
  5 10  1  0  0  0  0
  6 11  1  0  0  0  0
  6  5  2  0  0  0  0
  7  1  1  0  0  0  0
  8  2  1  0  0  0  0
 11 13  2  0  0  0  0
 12 11  2  0  0  0  0
 15 14  3  0  0  0  0
M  RAD  1   3   2
M  END
