Coordinates from ORCA-job p-NO2-Ph-N2+-B3LYPG-aug-cc-pVDZ-scan-d09-49-n400
 OpenBabel09291715233D

 15 15  0  0  0  0  0  0  0  0999 V2000
   -2.0070   -0.2139   -0.6320 C   0  0  0  0  0  0  0  0  0  0  0  0
   -0.6263   -0.2260   -0.7353 C   0  0  0  0  0  0  0  0  0  0  0  0
    0.1119    0.8666   -0.1870 C   0  0  0  0  0  0  0  0  0  0  0  0
   -0.5425    1.9594    0.4588 C   0  0  0  0  0  0  0  0  0  0  0  0
   -1.9241    1.9475    0.5491 C   0  0  0  0  0  0  0  0  0  0  0  0
   -2.6250    0.8668    0.0048 C   0  0  0  0  0  0  0  0  0  0  0  0
   -2.6127   -1.0238   -1.0343 H   0  0  0  0  0  0  0  0  0  0  0  0
   -0.0988   -1.0455   -1.2222 H   0  0  0  0  0  0  0  0  0  0  0  0
    0.0479    2.7788    0.8674 H   0  0  0  0  0  0  0  0  0  0  0  0
   -2.4677    2.7575    1.0318 H   0  0  0  0  0  0  0  0  0  0  0  0
   -4.1203    0.8670    0.1095 N   0  0  0  0  0  0  0  0  0  0  0  0
   -4.6979   -0.0921   -0.3764 O   0  0  0  0  0  0  0  0  0  0  0  0
   -4.6243    1.8261    0.6712 O   0  0  0  0  0  0  0  0  0  0  0  0
    1.3398    0.8665   -0.2730 N   0  0  0  0  0  0  0  0  0  0  0  0
    2.4583    0.8665   -0.3514 N   0  0  0  0  0  0  0  0  0  0  0  0
  1  6  1  0  0  0  0
  2  1  2  0  0  0  0
  2  3  1  0  0  0  0
  3  4  2  0  0  0  0
  4  5  1  0  0  0  0
  4  9  1  0  0  0  0
  5 10  1  0  0  0  0
  6 11  1  0  0  0  0
  6  5  2  0  0  0  0
  7  1  1  0  0  0  0
  8  2  1  0  0  0  0
 11 13  2  0  0  0  0
 12 11  2  0  0  0  0
 14  3  1  0  0  0  0
 15 14  1  0  0  0  0
M  RAD  2  14   2  15   3
M  END
