Coordinates from ORCA-job p-NO2-Ph-N2+-B3LYPG-aug-cc-pVDZ-scan-d09-49-n400
 OpenBabel09291715233D

 15 15  0  0  0  0  0  0  0  0999 V2000
   -1.9890   -0.2132   -0.6340 C   0  0  0  0  0  0  0  0  0  0  0  0
   -0.6162   -0.2280   -0.7372 C   0  0  0  0  0  0  0  0  0  0  0  0
    0.1868    0.8661   -0.1913 C   0  0  0  0  0  0  0  0  0  0  0  0
   -0.5322    1.9616    0.4590 C   0  0  0  0  0  0  0  0  0  0  0  0
   -1.9062    1.9479    0.5466 C   0  0  0  0  0  0  0  0  0  0  0  0
   -2.6099    0.8676    0.0024 C   0  0  0  0  0  0  0  0  0  0  0  0
   -2.5936   -1.0242   -1.0377 H   0  0  0  0  0  0  0  0  0  0  0  0
   -0.0812   -1.0449   -1.2229 H   0  0  0  0  0  0  0  0  0  0  0  0
    0.0654    2.7782    0.8656 H   0  0  0  0  0  0  0  0  0  0  0  0
   -2.4485    2.7596    1.0295 H   0  0  0  0  0  0  0  0  0  0  0  0
   -4.1050    0.8684    0.1059 N   0  0  0  0  0  0  0  0  0  0  0  0
   -4.6800   -0.0942   -0.3756 O   0  0  0  0  0  0  0  0  0  0  0  0
   -4.6063    1.8248    0.6743 O   0  0  0  0  0  0  0  0  0  0  0  0
    1.1946    0.8660   -0.2619 N   0  0  0  0  0  0  0  0  0  0  0  0
    2.3330    0.8659   -0.3416 N   0  0  0  0  0  0  0  0  0  0  0  0
  1  6  1  0  0  0  0
  2  1  2  0  0  0  0
  2  3  1  0  0  0  0
  3  4  2  0  0  0  0
  4  5  1  0  0  0  0
  4  9  1  0  0  0  0
  5 10  1  0  0  0  0
  6 11  1  0  0  0  0
  6  5  2  0  0  0  0
  7  1  1  0  0  0  0
  8  2  1  0  0  0  0
 11 13  2  0  0  0  0
 12 11  2  0  0  0  0
 14  3  1  0  0  0  0
 15 14  1  0  0  0  0
M  RAD  2  14   2  15   3
M  END
