Coordinates from ORCA-job p-NO2-Ph-N2+-B3LYPG-aug-cc-pVDZ-scan-d09-49-n400
 OpenBabel09291715233D

 15 14  0  0  0  0  0  0  0  0999 V2000
   -2.1212   -0.2123   -0.6231 C   0  0  0  0  0  0  0  0  0  0  0  0
   -0.7070   -0.2511   -0.7435 C   0  0  0  0  0  0  0  0  0  0  0  0
   -0.2399    0.8667   -0.1624 C   0  0  0  0  0  0  0  0  0  0  0  0
   -0.6212    1.9846    0.4781 C   0  0  0  0  0  0  0  0  0  0  0  0
   -2.0384    1.9459    0.5561 C   0  0  0  0  0  0  0  0  0  0  0  0
   -2.7386    0.8669    0.0127 C   0  0  0  0  0  0  0  0  0  0  0  0
   -2.7106   -1.0338   -1.0329 H   0  0  0  0  0  0  0  0  0  0  0  0
   -0.1539   -1.0547   -1.2234 H   0  0  0  0  0  0  0  0  0  0  0  0
   -0.0065    2.7880    0.8762 H   0  0  0  0  0  0  0  0  0  0  0  0
   -2.5648    2.7675    1.0441 H   0  0  0  0  0  0  0  0  0  0  0  0
   -4.2263    0.8670    0.1169 N   0  0  0  0  0  0  0  0  0  0  0  0
   -4.8050   -0.0921   -0.3686 O   0  0  0  0  0  0  0  0  0  0  0  0
   -4.7314    1.8258    0.6791 O   0  0  0  0  0  0  0  0  0  0  0  0
    2.0880    0.8665   -0.3255 N   0  0  0  0  0  0  0  0  0  0  0  0
    3.1884    0.8665   -0.4026 N   0  0  0  0  0  0  0  0  0  0  0  0
  1  6  1  0  0  0  0
  2  1  2  0  0  0  0
  2  3  1  0  0  0  0
  3  4  2  0  0  0  0
  4  5  1  0  0  0  0
  4  9  1  0  0  0  0
  5 10  1  0  0  0  0
  6 11  1  0  0  0  0
  6  5  2  0  0  0  0
  7  1  1  0  0  0  0
  8  2  1  0  0  0  0
 11 13  2  0  0  0  0
 12 11  2  0  0  0  0
 15 14  3  0  0  0  0
M  RAD  1   3   2
M  END
