Coordinates from ORCA-job p-NO2-Ph-N2+-B3LYPG-aug-cc-pVDZ-scan-d09-49-n400
 OpenBabel09291715233D

 15 14  0  0  0  0  0  0  0  0999 V2000
   -2.1352   -0.2127   -0.6221 C   0  0  0  0  0  0  0  0  0  0  0  0
   -0.7179   -0.2530   -0.7437 C   0  0  0  0  0  0  0  0  0  0  0  0
   -0.2720    0.8667   -0.1602 C   0  0  0  0  0  0  0  0  0  0  0  0
   -0.6320    1.9865    0.4799 C   0  0  0  0  0  0  0  0  0  0  0  0
   -2.0523    1.9462    0.5574 C   0  0  0  0  0  0  0  0  0  0  0  0
   -2.7526    0.8668    0.0139 C   0  0  0  0  0  0  0  0  0  0  0  0
   -2.7233   -1.0352   -1.0325 H   0  0  0  0  0  0  0  0  0  0  0  0
   -0.1613   -1.0547   -1.2229 H   0  0  0  0  0  0  0  0  0  0  0  0
   -0.0139    2.7880    0.8767 H   0  0  0  0  0  0  0  0  0  0  0  0
   -2.5774    2.7687    1.0459 H   0  0  0  0  0  0  0  0  0  0  0  0
   -4.2399    0.8668    0.1182 N   0  0  0  0  0  0  0  0  0  0  0  0
   -4.8182   -0.0920   -0.3682 O   0  0  0  0  0  0  0  0  0  0  0  0
   -4.7446    1.8262    0.6796 O   0  0  0  0  0  0  0  0  0  0  0  0
    2.1759    0.8666   -0.3319 N   0  0  0  0  0  0  0  0  0  0  0  0
    3.2763    0.8666   -0.4089 N   0  0  0  0  0  0  0  0  0  0  0  0
  1  6  1  0  0  0  0
  2  1  2  0  0  0  0
  2  3  1  0  0  0  0
  3  4  2  0  0  0  0
  4  5  1  0  0  0  0
  4  9  1  0  0  0  0
  5 10  1  0  0  0  0
  6 11  1  0  0  0  0
  6  5  2  0  0  0  0
  7  1  1  0  0  0  0
  8  2  1  0  0  0  0
 11 13  2  0  0  0  0
 12 11  2  0  0  0  0
 15 14  3  0  0  0  0
M  RAD  1   3   2
M  END
