Coordinates from ORCA-job p-NO2-Ph-N2+-B3LYPG-aug-cc-pVDZ-scan-d09-49-n400
 OpenBabel09291715233D

 15 14  0  0  0  0  0  0  0  0999 V2000
   -2.4117   -0.2127   -0.6030 C   0  0  0  0  0  0  0  0  0  0  0  0
   -0.9882   -0.2586   -0.7282 C   0  0  0  0  0  0  0  0  0  0  0  0
   -0.5857    0.8659   -0.1390 C   0  0  0  0  0  0  0  0  0  0  0  0
   -0.9008    1.9906    0.5007 C   0  0  0  0  0  0  0  0  0  0  0  0
   -2.3278    1.9457    0.5763 C   0  0  0  0  0  0  0  0  0  0  0  0
   -3.0294    0.8668    0.0331 C   0  0  0  0  0  0  0  0  0  0  0  0
   -2.9947   -1.0391   -1.0158 H   0  0  0  0  0  0  0  0  0  0  0  0
   -0.4261   -1.0588   -1.2070 H   0  0  0  0  0  0  0  0  0  0  0  0
   -0.2766    2.7904    0.8960 H   0  0  0  0  0  0  0  0  0  0  0  0
   -2.8466    2.7726    1.0667 H   0  0  0  0  0  0  0  0  0  0  0  0
   -4.5162    0.8673    0.1379 N   0  0  0  0  0  0  0  0  0  0  0  0
   -5.0929   -0.0921   -0.3484 O   0  0  0  0  0  0  0  0  0  0  0  0
   -5.0183    1.8272    0.7000 O   0  0  0  0  0  0  0  0  0  0  0  0
    3.9625    0.8681   -0.4559 N   0  0  0  0  0  0  0  0  0  0  0  0
    5.0639    0.8684   -0.5323 N   0  0  0  0  0  0  0  0  0  0  0  0
  1  6  1  0  0  0  0
  2  1  2  0  0  0  0
  2  3  1  0  0  0  0
  3  4  2  0  0  0  0
  4  5  1  0  0  0  0
  4  9  1  0  0  0  0
  5 10  1  0  0  0  0
  6 11  1  0  0  0  0
  6  5  2  0  0  0  0
  7  1  1  0  0  0  0
  8  2  1  0  0  0  0
 11 13  2  0  0  0  0
 12 11  2  0  0  0  0
 15 14  3  0  0  0  0
M  RAD  1   3   2
M  END
