Coordinates from ORCA-job p-NO2-Ph-N2+-B3LYPG-aug-cc-pVDZ-scan-d09-49-n400
 OpenBabel09291715233D

 15 14  0  0  0  0  0  0  0  0999 V2000
   -2.2252   -0.2125   -0.6159 C   0  0  0  0  0  0  0  0  0  0  0  0
   -0.8029   -0.2570   -0.7400 C   0  0  0  0  0  0  0  0  0  0  0  0
   -0.3933    0.8667   -0.1518 C   0  0  0  0  0  0  0  0  0  0  0  0
   -0.7167    1.9904    0.4879 C   0  0  0  0  0  0  0  0  0  0  0  0
   -2.1423    1.9461    0.5635 C   0  0  0  0  0  0  0  0  0  0  0  0
   -2.8433    0.8668    0.0201 C   0  0  0  0  0  0  0  0  0  0  0  0
   -2.8091   -1.0382   -1.0283 H   0  0  0  0  0  0  0  0  0  0  0  0
   -0.2401   -1.0562   -1.2184 H   0  0  0  0  0  0  0  0  0  0  0  0
   -0.0925    2.7896    0.8829 H   0  0  0  0  0  0  0  0  0  0  0  0
   -2.6628    2.7718    1.0534 H   0  0  0  0  0  0  0  0  0  0  0  0
   -4.3301    0.8669    0.1244 N   0  0  0  0  0  0  0  0  0  0  0  0
   -4.9070   -0.0925   -0.3618 O   0  0  0  0  0  0  0  0  0  0  0  0
   -4.8333    1.8264    0.6865 O   0  0  0  0  0  0  0  0  0  0  0  0
    2.7546    0.8666   -0.3723 N   0  0  0  0  0  0  0  0  0  0  0  0
    3.8556    0.8666   -0.4492 N   0  0  0  0  0  0  0  0  0  0  0  0
  1  6  1  0  0  0  0
  2  1  2  0  0  0  0
  2  3  1  0  0  0  0
  3  4  2  0  0  0  0
  4  5  1  0  0  0  0
  4  9  1  0  0  0  0
  5 10  1  0  0  0  0
  6 11  1  0  0  0  0
  6  5  2  0  0  0  0
  7  1  1  0  0  0  0
  8  2  1  0  0  0  0
 11 13  2  0  0  0  0
 12 11  2  0  0  0  0
 15 14  3  0  0  0  0
M  RAD  1   3   2
M  END
