Coordinates from ORCA-job p-NO2-Ph-N2+-B3LYPG-aug-cc-pVDZ-scan-d09-49-n400
 OpenBabel09291715233D

 15 14  0  0  0  0  0  0  0  0999 V2000
   -2.2605   -0.2129   -0.6133 C   0  0  0  0  0  0  0  0  0  0  0  0
   -0.8371   -0.2574   -0.7378 C   0  0  0  0  0  0  0  0  0  0  0  0
   -0.4354    0.8666   -0.1488 C   0  0  0  0  0  0  0  0  0  0  0  0
   -0.7508    1.9907    0.4905 C   0  0  0  0  0  0  0  0  0  0  0  0
   -2.1776    1.9462    0.5664 C   0  0  0  0  0  0  0  0  0  0  0  0
   -2.8787    0.8667    0.0229 C   0  0  0  0  0  0  0  0  0  0  0  0
   -2.8440   -1.0389   -1.0259 H   0  0  0  0  0  0  0  0  0  0  0  0
   -0.2725   -1.0558   -1.2158 H   0  0  0  0  0  0  0  0  0  0  0  0
   -0.1248    2.7891    0.8849 H   0  0  0  0  0  0  0  0  0  0  0  0
   -2.6976    2.7723    1.0565 H   0  0  0  0  0  0  0  0  0  0  0  0
   -4.3653    0.8667    0.1274 N   0  0  0  0  0  0  0  0  0  0  0  0
   -4.9420   -0.0922   -0.3602 O   0  0  0  0  0  0  0  0  0  0  0  0
   -4.8683    1.8270    0.6882 O   0  0  0  0  0  0  0  0  0  0  0  0
    2.9825    0.8668   -0.3884 N   0  0  0  0  0  0  0  0  0  0  0  0
    4.0836    0.8668   -0.4654 N   0  0  0  0  0  0  0  0  0  0  0  0
  1  6  1  0  0  0  0
  2  1  2  0  0  0  0
  2  3  1  0  0  0  0
  3  4  2  0  0  0  0
  4  5  1  0  0  0  0
  4  9  1  0  0  0  0
  5 10  1  0  0  0  0
  6 11  1  0  0  0  0
  6  5  2  0  0  0  0
  7  1  1  0  0  0  0
  8  2  1  0  0  0  0
 11 13  2  0  0  0  0
 12 11  2  0  0  0  0
 15 14  3  0  0  0  0
M  RAD  1   3   2
M  END
