Coordinates from ORCA-job p-NO2-Ph-N2+-B3LYPG-aug-cc-pVDZ-scan-d09-49-n400
 OpenBabel09291715233D

 15 14  0  0  0  0  0  0  0  0999 V2000
   -2.3234   -0.2125   -0.6090 C   0  0  0  0  0  0  0  0  0  0  0  0
   -0.9001   -0.2579   -0.7338 C   0  0  0  0  0  0  0  0  0  0  0  0
   -0.4969    0.8665   -0.1447 C   0  0  0  0  0  0  0  0  0  0  0  0
   -0.8135    1.9910    0.4949 C   0  0  0  0  0  0  0  0  0  0  0  0
   -2.2403    1.9460    0.5703 C   0  0  0  0  0  0  0  0  0  0  0  0
   -2.9415    0.8668    0.0270 C   0  0  0  0  0  0  0  0  0  0  0  0
   -2.9064   -1.0389   -1.0219 H   0  0  0  0  0  0  0  0  0  0  0  0
   -0.3372   -1.0576   -1.2124 H   0  0  0  0  0  0  0  0  0  0  0  0
   -0.1891    2.7905    0.8901 H   0  0  0  0  0  0  0  0  0  0  0  0
   -2.7597    2.7725    1.0606 H   0  0  0  0  0  0  0  0  0  0  0  0
   -4.4283    0.8670    0.1314 N   0  0  0  0  0  0  0  0  0  0  0  0
   -5.0048   -0.0925   -0.3549 O   0  0  0  0  0  0  0  0  0  0  0  0
   -4.9309    1.8267    0.6935 O   0  0  0  0  0  0  0  0  0  0  0  0
    3.3911    0.8670   -0.4166 N   0  0  0  0  0  0  0  0  0  0  0  0
    4.4924    0.8670   -0.4934 N   0  0  0  0  0  0  0  0  0  0  0  0
  1  6  1  0  0  0  0
  2  1  2  0  0  0  0
  2  3  1  0  0  0  0
  3  4  2  0  0  0  0
  4  5  1  0  0  0  0
  4  9  1  0  0  0  0
  5 10  1  0  0  0  0
  6 11  1  0  0  0  0
  6  5  2  0  0  0  0
  7  1  1  0  0  0  0
  8  2  1  0  0  0  0
 11 13  2  0  0  0  0
 12 11  2  0  0  0  0
 15 14  3  0  0  0  0
M  RAD  1   3   2
M  END
