Coordinates from ORCA-job p-NO2-Ph-N2+-B3LYPG-aug-cc-pVDZ-scan-d09-49-n400
 OpenBabel09291715233D

 15 14  0  0  0  0  0  0  0  0999 V2000
   -2.3779   -0.2128   -0.6055 C   0  0  0  0  0  0  0  0  0  0  0  0
   -0.9541   -0.2581   -0.7303 C   0  0  0  0  0  0  0  0  0  0  0  0
   -0.5547    0.8662   -0.1410 C   0  0  0  0  0  0  0  0  0  0  0  0
   -0.8671    1.9906    0.4983 C   0  0  0  0  0  0  0  0  0  0  0  0
   -2.2944    1.9461    0.5741 C   0  0  0  0  0  0  0  0  0  0  0  0
   -2.9959    0.8668    0.0307 C   0  0  0  0  0  0  0  0  0  0  0  0
   -2.9608   -1.0393   -1.0184 H   0  0  0  0  0  0  0  0  0  0  0  0
   -0.3904   -1.0574   -1.2087 H   0  0  0  0  0  0  0  0  0  0  0  0
   -0.2416    2.7896    0.8932 H   0  0  0  0  0  0  0  0  0  0  0  0
   -2.8133    2.7729    1.0644 H   0  0  0  0  0  0  0  0  0  0  0  0
   -4.4826    0.8672    0.1352 N   0  0  0  0  0  0  0  0  0  0  0  0
   -5.0591   -0.0925   -0.3506 O   0  0  0  0  0  0  0  0  0  0  0  0
   -4.9848    1.8268    0.6978 O   0  0  0  0  0  0  0  0  0  0  0  0
    3.7434    0.8675   -0.4408 N   0  0  0  0  0  0  0  0  0  0  0  0
    4.8448    0.8677   -0.5173 N   0  0  0  0  0  0  0  0  0  0  0  0
  1  6  1  0  0  0  0
  2  1  2  0  0  0  0
  2  3  1  0  0  0  0
  3  4  2  0  0  0  0
  4  5  1  0  0  0  0
  4  9  1  0  0  0  0
  5 10  1  0  0  0  0
  6 11  1  0  0  0  0
  6  5  2  0  0  0  0
  7  1  1  0  0  0  0
  8  2  1  0  0  0  0
 11 13  2  0  0  0  0
 12 11  2  0  0  0  0
 15 14  3  0  0  0  0
M  RAD  1   3   2
M  END
