Coordinates from ORCA-job p-NO2-Ph-N2+-B3LYPG-aug-cc-pVDZ-scan-d09-49-n400
 OpenBabel09291715233D

 15 14  0  0  0  0  0  0  0  0999 V2000
   -2.0802   -0.2131   -0.6252 C   0  0  0  0  0  0  0  0  0  0  0  0
   -0.6752   -0.2439   -0.7414 C   0  0  0  0  0  0  0  0  0  0  0  0
   -0.1386    0.8667   -0.1695 C   0  0  0  0  0  0  0  0  0  0  0  0
   -0.5900    1.9771    0.4721 C   0  0  0  0  0  0  0  0  0  0  0  0
   -1.9973    1.9457    0.5543 C   0  0  0  0  0  0  0  0  0  0  0  0
   -2.6964    0.8662    0.0110 C   0  0  0  0  0  0  0  0  0  0  0  0
   -2.6774   -1.0291   -1.0311 H   0  0  0  0  0  0  0  0  0  0  0  0
   -0.1309   -1.0518   -1.2235 H   0  0  0  0  0  0  0  0  0  0  0  0
    0.0163    2.7852    0.8730 H   0  0  0  0  0  0  0  0  0  0  0  0
   -2.5320    2.7616    1.0401 H   0  0  0  0  0  0  0  0  0  0  0  0
   -4.1859    0.8658    0.1162 N   0  0  0  0  0  0  0  0  0  0  0  0
   -4.7664   -0.0899   -0.3741 O   0  0  0  0  0  0  0  0  0  0  0  0
   -4.6929    1.8269    0.6731 O   0  0  0  0  0  0  0  0  0  0  0  0
    1.8292    0.8670   -0.3082 N   0  0  0  0  0  0  0  0  0  0  0  0
    2.9291    0.8672   -0.3858 N   0  0  0  0  0  0  0  0  0  0  0  0
  1  6  1  0  0  0  0
  2  1  2  0  0  0  0
  2  3  1  0  0  0  0
  3  4  2  0  0  0  0
  4  5  1  0  0  0  0
  4  9  1  0  0  0  0
  5 10  1  0  0  0  0
  6 11  1  0  0  0  0
  6  5  2  0  0  0  0
  7  1  1  0  0  0  0
  8  2  1  0  0  0  0
 11 13  2  0  0  0  0
 12 11  2  0  0  0  0
 15 14  3  0  0  0  0
M  RAD  1   3   2
M  END
