Coordinates from ORCA-job p-NO2-Ph-N2+-B3LYPG-aug-cc-pVDZ-scan-d09-49-n400
 OpenBabel09291715233D

 15 14  0  0  0  0  0  0  0  0999 V2000
   -2.2595   -0.2126   -0.6136 C   0  0  0  0  0  0  0  0  0  0  0  0
   -0.8363   -0.2576   -0.7381 C   0  0  0  0  0  0  0  0  0  0  0  0
   -0.4319    0.8667   -0.1491 C   0  0  0  0  0  0  0  0  0  0  0  0
   -0.7500    1.9910    0.4905 C   0  0  0  0  0  0  0  0  0  0  0  0
   -2.1766    1.9462    0.5659 C   0  0  0  0  0  0  0  0  0  0  0  0
   -2.8776    0.8668    0.0225 C   0  0  0  0  0  0  0  0  0  0  0  0
   -2.8431   -1.0385   -1.0262 H   0  0  0  0  0  0  0  0  0  0  0  0
   -0.2727   -1.0566   -1.2163 H   0  0  0  0  0  0  0  0  0  0  0  0
   -0.1250    2.7899    0.8854 H   0  0  0  0  0  0  0  0  0  0  0  0
   -2.6968    2.7722    1.0560 H   0  0  0  0  0  0  0  0  0  0  0  0
   -4.3642    0.8669    0.1268 N   0  0  0  0  0  0  0  0  0  0  0  0
   -4.9409   -0.0926   -0.3593 O   0  0  0  0  0  0  0  0  0  0  0  0
   -4.8672    1.8264    0.6890 O   0  0  0  0  0  0  0  0  0  0  0  0
    2.9760    0.8666   -0.3877 N   0  0  0  0  0  0  0  0  0  0  0  0
    4.0771    0.8666   -0.4646 N   0  0  0  0  0  0  0  0  0  0  0  0
  1  6  1  0  0  0  0
  2  1  2  0  0  0  0
  2  3  1  0  0  0  0
  3  4  2  0  0  0  0
  4  5  1  0  0  0  0
  4  9  1  0  0  0  0
  5 10  1  0  0  0  0
  6 11  1  0  0  0  0
  6  5  2  0  0  0  0
  7  1  1  0  0  0  0
  8  2  1  0  0  0  0
 11 13  2  0  0  0  0
 12 11  2  0  0  0  0
 15 14  3  0  0  0  0
M  RAD  1   3   2
M  END
