Coordinates from ORCA-job p-NO2-Ph-N2+-B3LYPG-aug-cc-pVDZ-scan-d09-49-n400
 OpenBabel09291715233D

 15 14  0  0  0  0  0  0  0  0999 V2000
   -2.4278   -0.2128   -0.6019 C   0  0  0  0  0  0  0  0  0  0  0  0
   -1.0043   -0.2588   -0.7271 C   0  0  0  0  0  0  0  0  0  0  0  0
   -0.6017    0.8657   -0.1380 C   0  0  0  0  0  0  0  0  0  0  0  0
   -0.9167    1.9904    0.5017 C   0  0  0  0  0  0  0  0  0  0  0  0
   -2.3437    1.9457    0.5774 C   0  0  0  0  0  0  0  0  0  0  0  0
   -3.0454    0.8667    0.0342 C   0  0  0  0  0  0  0  0  0  0  0  0
   -3.0108   -1.0392   -1.0147 H   0  0  0  0  0  0  0  0  0  0  0  0
   -0.4424   -1.0591   -1.2060 H   0  0  0  0  0  0  0  0  0  0  0  0
   -0.2924    2.7902    0.8970 H   0  0  0  0  0  0  0  0  0  0  0  0
   -2.8624    2.7726    1.0678 H   0  0  0  0  0  0  0  0  0  0  0  0
   -4.5322    0.8674    0.1390 N   0  0  0  0  0  0  0  0  0  0  0  0
   -5.1089   -0.0920   -0.3472 O   0  0  0  0  0  0  0  0  0  0  0  0
   -5.0342    1.8273    0.7012 O   0  0  0  0  0  0  0  0  0  0  0  0
    4.0665    0.8684   -0.4629 N   0  0  0  0  0  0  0  0  0  0  0  0
    5.1680    0.8688   -0.5394 N   0  0  0  0  0  0  0  0  0  0  0  0
  1  6  1  0  0  0  0
  2  1  2  0  0  0  0
  2  3  1  0  0  0  0
  3  4  2  0  0  0  0
  4  5  1  0  0  0  0
  4  9  1  0  0  0  0
  5 10  1  0  0  0  0
  6 11  1  0  0  0  0
  6  5  2  0  0  0  0
  7  1  1  0  0  0  0
  8  2  1  0  0  0  0
 11 13  2  0  0  0  0
 12 11  2  0  0  0  0
 15 14  3  0  0  0  0
M  RAD  1   3   2
M  END
