Coordinates from ORCA-job p-NO2-Ph-N2+-B3LYPG-aug-cc-pVDZ-scan-d09-49-n400
 OpenBabel09291715233D

 15 14  0  0  0  0  0  0  0  0999 V2000
   -2.3661   -0.2126   -0.6061 C   0  0  0  0  0  0  0  0  0  0  0  0
   -0.9427   -0.2582   -0.7311 C   0  0  0  0  0  0  0  0  0  0  0  0
   -0.5401    0.8662   -0.1419 C   0  0  0  0  0  0  0  0  0  0  0  0
   -0.8558    1.9908    0.4977 C   0  0  0  0  0  0  0  0  0  0  0  0
   -2.2827    1.9459    0.5732 C   0  0  0  0  0  0  0  0  0  0  0  0
   -2.9841    0.8668    0.0300 C   0  0  0  0  0  0  0  0  0  0  0  0
   -2.9491   -1.0390   -1.0189 H   0  0  0  0  0  0  0  0  0  0  0  0
   -0.3802   -1.0581   -1.2098 H   0  0  0  0  0  0  0  0  0  0  0  0
   -0.2315    2.7905    0.8930 H   0  0  0  0  0  0  0  0  0  0  0  0
   -2.8018    2.7725    1.0636 H   0  0  0  0  0  0  0  0  0  0  0  0
   -4.4709    0.8671    0.1345 N   0  0  0  0  0  0  0  0  0  0  0  0
   -5.0474   -0.0924   -0.3518 O   0  0  0  0  0  0  0  0  0  0  0  0
   -4.9732    1.8269    0.6966 O   0  0  0  0  0  0  0  0  0  0  0  0
    3.6679    0.8674   -0.4357 N   0  0  0  0  0  0  0  0  0  0  0  0
    4.7693    0.8676   -0.5123 N   0  0  0  0  0  0  0  0  0  0  0  0
  1  6  1  0  0  0  0
  2  1  2  0  0  0  0
  2  3  1  0  0  0  0
  3  4  2  0  0  0  0
  4  5  1  0  0  0  0
  4  9  1  0  0  0  0
  5 10  1  0  0  0  0
  6 11  1  0  0  0  0
  6  5  2  0  0  0  0
  7  1  1  0  0  0  0
  8  2  1  0  0  0  0
 11 13  2  0  0  0  0
 12 11  2  0  0  0  0
 15 14  3  0  0  0  0
M  RAD  1   3   2
M  END
