Coordinates from ORCA-job p-NO2-Ph-N2+-B3LYPG-aug-cc-pVDZ-scan-d09-49-n400
 OpenBabel09291715233D

 15 14  0  0  0  0  0  0  0  0999 V2000
   -2.3554   -0.2126   -0.6068 C   0  0  0  0  0  0  0  0  0  0  0  0
   -0.9320   -0.2581   -0.7318 C   0  0  0  0  0  0  0  0  0  0  0  0
   -0.5294    0.8663   -0.1426 C   0  0  0  0  0  0  0  0  0  0  0  0
   -0.8452    1.9909    0.4970 C   0  0  0  0  0  0  0  0  0  0  0  0
   -2.2721    1.9459    0.5725 C   0  0  0  0  0  0  0  0  0  0  0  0
   -2.9735    0.8668    0.0292 C   0  0  0  0  0  0  0  0  0  0  0  0
   -2.9384   -1.0390   -1.0197 H   0  0  0  0  0  0  0  0  0  0  0  0
   -0.3694   -1.0580   -1.2104 H   0  0  0  0  0  0  0  0  0  0  0  0
   -0.2209    2.7905    0.8923 H   0  0  0  0  0  0  0  0  0  0  0  0
   -2.7913    2.7725    1.0628 H   0  0  0  0  0  0  0  0  0  0  0  0
   -4.4602    0.8671    0.1338 N   0  0  0  0  0  0  0  0  0  0  0  0
   -5.0367   -0.0924   -0.3526 O   0  0  0  0  0  0  0  0  0  0  0  0
   -4.9626    1.8268    0.6959 O   0  0  0  0  0  0  0  0  0  0  0  0
    3.5987    0.8673   -0.4309 N   0  0  0  0  0  0  0  0  0  0  0  0
    4.7001    0.8674   -0.5076 N   0  0  0  0  0  0  0  0  0  0  0  0
  1  6  1  0  0  0  0
  2  1  2  0  0  0  0
  2  3  1  0  0  0  0
  3  4  2  0  0  0  0
  4  5  1  0  0  0  0
  4  9  1  0  0  0  0
  5 10  1  0  0  0  0
  6 11  1  0  0  0  0
  6  5  2  0  0  0  0
  7  1  1  0  0  0  0
  8  2  1  0  0  0  0
 11 13  2  0  0  0  0
 12 11  2  0  0  0  0
 15 14  3  0  0  0  0
M  RAD  1   3   2
M  END
