Coordinates from ORCA-job p-NO2-Ph-N2+-B3LYPG-aug-cc-pVDZ-scan-d09-49-n400
 OpenBabel09291715233D

 15 14  0  0  0  0  0  0  0  0999 V2000
   -2.4100   -0.2129   -0.6033 C   0  0  0  0  0  0  0  0  0  0  0  0
   -0.9862   -0.2584   -0.7282 C   0  0  0  0  0  0  0  0  0  0  0  0
   -0.5869    0.8659   -0.1390 C   0  0  0  0  0  0  0  0  0  0  0  0
   -0.8989    1.9905    0.5004 C   0  0  0  0  0  0  0  0  0  0  0  0
   -2.3262    1.9460    0.5762 C   0  0  0  0  0  0  0  0  0  0  0  0
   -3.0279    0.8668    0.0329 C   0  0  0  0  0  0  0  0  0  0  0  0
   -2.9930   -1.0394   -1.0162 H   0  0  0  0  0  0  0  0  0  0  0  0
   -0.4228   -1.0579   -1.2068 H   0  0  0  0  0  0  0  0  0  0  0  0
   -0.2734    2.7895    0.8953 H   0  0  0  0  0  0  0  0  0  0  0  0
   -2.8449    2.7729    1.0666 H   0  0  0  0  0  0  0  0  0  0  0  0
   -4.5146    0.8674    0.1376 N   0  0  0  0  0  0  0  0  0  0  0  0
   -5.0912   -0.0923   -0.3482 O   0  0  0  0  0  0  0  0  0  0  0  0
   -5.0166    1.8270    0.7002 O   0  0  0  0  0  0  0  0  0  0  0  0
    3.9513    0.8680   -0.4550 N   0  0  0  0  0  0  0  0  0  0  0  0
    5.0528    0.8683   -0.5314 N   0  0  0  0  0  0  0  0  0  0  0  0
  1  6  1  0  0  0  0
  2  1  2  0  0  0  0
  2  3  1  0  0  0  0
  3  4  2  0  0  0  0
  4  5  1  0  0  0  0
  4  9  1  0  0  0  0
  5 10  1  0  0  0  0
  6 11  1  0  0  0  0
  6  5  2  0  0  0  0
  7  1  1  0  0  0  0
  8  2  1  0  0  0  0
 11 13  2  0  0  0  0
 12 11  2  0  0  0  0
 15 14  3  0  0  0  0
M  RAD  1   3   2
M  END
