Coordinates from ORCA-job p-NO2-Ph-N2+-B3LYPG-aug-cc-pVDZ-scan-d09-49-n400
 OpenBabel09291715233D

 15 15  0  0  0  0  0  0  0  0999 V2000
   -2.0008   -0.2139   -0.6324 C   0  0  0  0  0  0  0  0  0  0  0  0
   -0.6224   -0.2261   -0.7356 C   0  0  0  0  0  0  0  0  0  0  0  0
    0.1351    0.8666   -0.1886 C   0  0  0  0  0  0  0  0  0  0  0  0
   -0.5385    1.9595    0.4586 C   0  0  0  0  0  0  0  0  0  0  0  0
   -1.9179    1.9475    0.5486 C   0  0  0  0  0  0  0  0  0  0  0  0
   -2.6194    0.8669    0.0043 C   0  0  0  0  0  0  0  0  0  0  0  0
   -2.6062   -1.0241   -1.0349 H   0  0  0  0  0  0  0  0  0  0  0  0
   -0.0944   -1.0457   -1.2226 H   0  0  0  0  0  0  0  0  0  0  0  0
    0.0524    2.7790    0.8672 H   0  0  0  0  0  0  0  0  0  0  0  0
   -2.4611    2.7579    1.0315 H   0  0  0  0  0  0  0  0  0  0  0  0
   -4.1149    0.8670    0.1092 N   0  0  0  0  0  0  0  0  0  0  0  0
   -4.6918   -0.0923   -0.3769 O   0  0  0  0  0  0  0  0  0  0  0  0
   -4.6182    1.8263    0.6710 O   0  0  0  0  0  0  0  0  0  0  0  0
    1.2929    0.8665   -0.2697 N   0  0  0  0  0  0  0  0  0  0  0  0
    2.4167    0.8664   -0.3484 N   0  0  0  0  0  0  0  0  0  0  0  0
  1  6  1  0  0  0  0
  2  1  2  0  0  0  0
  2  3  1  0  0  0  0
  3  4  2  0  0  0  0
  4  5  1  0  0  0  0
  4  9  1  0  0  0  0
  5 10  1  0  0  0  0
  6 11  1  0  0  0  0
  6  5  2  0  0  0  0
  7  1  1  0  0  0  0
  8  2  1  0  0  0  0
 11 13  2  0  0  0  0
 12 11  2  0  0  0  0
 14  3  1  0  0  0  0
 15 14  1  0  0  0  0
M  RAD  2  14   2  15   3
M  END
