Coordinates from ORCA-job p-NO2-Ph-N2+-B3LYPG-aug-cc-pVDZ-scan-d09-49-n400
 OpenBabel09291715233D

 15 14  0  0  0  0  0  0  0  0999 V2000
   -2.2420   -0.2129   -0.6146 C   0  0  0  0  0  0  0  0  0  0  0  0
   -0.8188   -0.2572   -0.7390 C   0  0  0  0  0  0  0  0  0  0  0  0
   -0.4157    0.8666   -0.1502 C   0  0  0  0  0  0  0  0  0  0  0  0
   -0.7325    1.9905    0.4892 C   0  0  0  0  0  0  0  0  0  0  0  0
   -2.1590    1.9462    0.5651 C   0  0  0  0  0  0  0  0  0  0  0  0
   -2.8601    0.8667    0.0216 C   0  0  0  0  0  0  0  0  0  0  0  0
   -2.8257   -1.0388   -1.0271 H   0  0  0  0  0  0  0  0  0  0  0  0
   -0.2542   -1.0556   -1.2170 H   0  0  0  0  0  0  0  0  0  0  0  0
   -0.1066    2.7889    0.8836 H   0  0  0  0  0  0  0  0  0  0  0  0
   -2.6794    2.7721    1.0551 H   0  0  0  0  0  0  0  0  0  0  0  0
   -4.3467    0.8666    0.1261 N   0  0  0  0  0  0  0  0  0  0  0  0
   -4.9235   -0.0921   -0.3615 O   0  0  0  0  0  0  0  0  0  0  0  0
   -4.8498    1.8269    0.6869 O   0  0  0  0  0  0  0  0  0  0  0  0
    2.8623    0.8668   -0.3800 N   0  0  0  0  0  0  0  0  0  0  0  0
    3.9633    0.8668   -0.4571 N   0  0  0  0  0  0  0  0  0  0  0  0
  1  6  1  0  0  0  0
  2  1  2  0  0  0  0
  2  3  1  0  0  0  0
  3  4  2  0  0  0  0
  4  5  1  0  0  0  0
  4  9  1  0  0  0  0
  5 10  1  0  0  0  0
  6 11  1  0  0  0  0
  6  5  2  0  0  0  0
  7  1  1  0  0  0  0
  8  2  1  0  0  0  0
 11 13  2  0  0  0  0
 12 11  2  0  0  0  0
 15 14  3  0  0  0  0
M  RAD  1   3   2
M  END
