Coordinates from ORCA-job p-NO2-Ph-N2+-B3LYPG-aug-cc-pVDZ-scan-d09-49-n400
 OpenBabel09291715233D

 15 15  0  0  0  0  0  0  0  0999 V2000
   -2.0237   -0.2140   -0.6308 C   0  0  0  0  0  0  0  0  0  0  0  0
   -0.6374   -0.2281   -0.7357 C   0  0  0  0  0  0  0  0  0  0  0  0
    0.0523    0.8667   -0.1829 C   0  0  0  0  0  0  0  0  0  0  0  0
   -0.5534    1.9615    0.4607 C   0  0  0  0  0  0  0  0  0  0  0  0
   -1.9408    1.9476    0.5502 C   0  0  0  0  0  0  0  0  0  0  0  0
   -2.6402    0.8669    0.0058 C   0  0  0  0  0  0  0  0  0  0  0  0
   -2.6303   -1.0233   -1.0326 H   0  0  0  0  0  0  0  0  0  0  0  0
   -0.1083   -1.0460   -1.2217 H   0  0  0  0  0  0  0  0  0  0  0  0
    0.0384    2.7793    0.8683 H   0  0  0  0  0  0  0  0  0  0  0  0
   -2.4853    2.7569    1.0328 H   0  0  0  0  0  0  0  0  0  0  0  0
   -4.1345    0.8670    0.1106 N   0  0  0  0  0  0  0  0  0  0  0  0
   -4.7139   -0.0915   -0.3750 O   0  0  0  0  0  0  0  0  0  0  0  0
   -4.6404    1.8256    0.6721 O   0  0  0  0  0  0  0  0  0  0  0  0
    1.4601    0.8666   -0.2815 N   0  0  0  0  0  0  0  0  0  0  0  0
    2.5689    0.8665   -0.3592 N   0  0  0  0  0  0  0  0  0  0  0  0
  1  6  1  0  0  0  0
  2  1  2  0  0  0  0
  2  3  1  0  0  0  0
  3  4  2  0  0  0  0
  4  5  1  0  0  0  0
  4  9  1  0  0  0  0
  5 10  1  0  0  0  0
  6 11  1  0  0  0  0
  6  5  2  0  0  0  0
  7  1  1  0  0  0  0
  8  2  1  0  0  0  0
 11 13  2  0  0  0  0
 12 11  2  0  0  0  0
 14  3  1  0  0  0  0
 15 14  1  0  0  0  0
M  RAD  2  14   2  15   3
M  END
