Coordinates from ORCA-job p-NO2-Ph-N2+-B3LYPG-aug-cc-pVDZ-scan-d09-49-n400
 OpenBabel09291715233D

 15 14  0  0  0  0  0  0  0  0999 V2000
   -2.1236   -0.2123   -0.6229 C   0  0  0  0  0  0  0  0  0  0  0  0
   -0.7089   -0.2515   -0.7435 C   0  0  0  0  0  0  0  0  0  0  0  0
   -0.2450    0.8667   -0.1621 C   0  0  0  0  0  0  0  0  0  0  0  0
   -0.6231    1.9849    0.4784 C   0  0  0  0  0  0  0  0  0  0  0  0
   -2.0408    1.9459    0.5563 C   0  0  0  0  0  0  0  0  0  0  0  0
   -2.7410    0.8668    0.0129 C   0  0  0  0  0  0  0  0  0  0  0  0
   -2.7126   -1.0341   -1.0328 H   0  0  0  0  0  0  0  0  0  0  0  0
   -0.1554   -1.0547   -1.2234 H   0  0  0  0  0  0  0  0  0  0  0  0
   -0.0080    2.7881    0.8763 H   0  0  0  0  0  0  0  0  0  0  0  0
   -2.5668    2.7677    1.0444 H   0  0  0  0  0  0  0  0  0  0  0  0
   -4.2286    0.8669    0.1172 N   0  0  0  0  0  0  0  0  0  0  0  0
   -4.8073   -0.0920   -0.3686 O   0  0  0  0  0  0  0  0  0  0  0  0
   -4.7337    1.8259    0.6791 O   0  0  0  0  0  0  0  0  0  0  0  0
    2.1029    0.8666   -0.3266 N   0  0  0  0  0  0  0  0  0  0  0  0
    3.2032    0.8665   -0.4037 N   0  0  0  0  0  0  0  0  0  0  0  0
  1  6  1  0  0  0  0
  2  1  2  0  0  0  0
  2  3  1  0  0  0  0
  3  4  2  0  0  0  0
  4  5  1  0  0  0  0
  4  9  1  0  0  0  0
  5 10  1  0  0  0  0
  6 11  1  0  0  0  0
  6  5  2  0  0  0  0
  7  1  1  0  0  0  0
  8  2  1  0  0  0  0
 11 13  2  0  0  0  0
 12 11  2  0  0  0  0
 15 14  3  0  0  0  0
M  RAD  1   3   2
M  END
