Coordinates from ORCA-job p-NO2-Ph-N2+-B3LYPG-aug-cc-pVDZ-scan-d09-49-n400
 OpenBabel09291715233D

 15 14  0  0  0  0  0  0  0  0999 V2000
   -2.2104   -0.2133   -0.6159 C   0  0  0  0  0  0  0  0  0  0  0  0
   -0.7881   -0.2567   -0.7404 C   0  0  0  0  0  0  0  0  0  0  0  0
   -0.3792    0.8666   -0.1525 C   0  0  0  0  0  0  0  0  0  0  0  0
   -0.7019    1.9897    0.4871 C   0  0  0  0  0  0  0  0  0  0  0  0
   -2.1275    1.9457    0.5637 C   0  0  0  0  0  0  0  0  0  0  0  0
   -2.8285    0.8660    0.0205 C   0  0  0  0  0  0  0  0  0  0  0  0
   -2.7945   -1.0390   -1.0279 H   0  0  0  0  0  0  0  0  0  0  0  0
   -0.2245   -1.0553   -1.2187 H   0  0  0  0  0  0  0  0  0  0  0  0
   -0.0770    2.7885    0.8815 H   0  0  0  0  0  0  0  0  0  0  0  0
   -2.6483    2.7711    1.0538 H   0  0  0  0  0  0  0  0  0  0  0  0
   -4.3151    0.8656    0.1257 N   0  0  0  0  0  0  0  0  0  0  0  0
   -4.8925   -0.0905   -0.3666 O   0  0  0  0  0  0  0  0  0  0  0  0
   -4.8188    1.8284    0.6817 O   0  0  0  0  0  0  0  0  0  0  0  0
    2.6586    0.8672   -0.3667 N   0  0  0  0  0  0  0  0  0  0  0  0
    3.7594    0.8674   -0.4442 N   0  0  0  0  0  0  0  0  0  0  0  0
  1  6  1  0  0  0  0
  2  1  2  0  0  0  0
  2  3  1  0  0  0  0
  3  4  2  0  0  0  0
  4  5  1  0  0  0  0
  4  9  1  0  0  0  0
  5 10  1  0  0  0  0
  6 11  1  0  0  0  0
  6  5  2  0  0  0  0
  7  1  1  0  0  0  0
  8  2  1  0  0  0  0
 11 13  2  0  0  0  0
 12 11  2  0  0  0  0
 15 14  3  0  0  0  0
M  RAD  1   3   2
M  END
