Coordinates from ORCA-job p-NO2-Ph-N2+-B3LYPG-aug-cc-pVDZ-scan-d09-49-n400
 OpenBabel09291715233D

 15 14  0  0  0  0  0  0  0  0999 V2000
   -2.3341   -0.2125   -0.6083 C   0  0  0  0  0  0  0  0  0  0  0  0
   -0.9107   -0.2579   -0.7331 C   0  0  0  0  0  0  0  0  0  0  0  0
   -0.5078    0.8665   -0.1440 C   0  0  0  0  0  0  0  0  0  0  0  0
   -0.8241    1.9909    0.4956 C   0  0  0  0  0  0  0  0  0  0  0  0
   -2.2509    1.9459    0.5710 C   0  0  0  0  0  0  0  0  0  0  0  0
   -2.9522    0.8668    0.0277 C   0  0  0  0  0  0  0  0  0  0  0  0
   -2.9171   -1.0389   -1.0211 H   0  0  0  0  0  0  0  0  0  0  0  0
   -0.3480   -1.0577   -1.2117 H   0  0  0  0  0  0  0  0  0  0  0  0
   -0.1997    2.7905    0.8908 H   0  0  0  0  0  0  0  0  0  0  0  0
   -2.7702    2.7725    1.0613 H   0  0  0  0  0  0  0  0  0  0  0  0
   -4.4389    0.8670    0.1322 N   0  0  0  0  0  0  0  0  0  0  0  0
   -5.0154   -0.0925   -0.3542 O   0  0  0  0  0  0  0  0  0  0  0  0
   -4.9415    1.8267    0.6943 O   0  0  0  0  0  0  0  0  0  0  0  0
    3.4603    0.8671   -0.4214 N   0  0  0  0  0  0  0  0  0  0  0  0
    4.5616    0.8671   -0.4981 N   0  0  0  0  0  0  0  0  0  0  0  0
  1  6  1  0  0  0  0
  2  1  2  0  0  0  0
  2  3  1  0  0  0  0
  3  4  2  0  0  0  0
  4  5  1  0  0  0  0
  4  9  1  0  0  0  0
  5 10  1  0  0  0  0
  6 11  1  0  0  0  0
  6  5  2  0  0  0  0
  7  1  1  0  0  0  0
  8  2  1  0  0  0  0
 11 13  2  0  0  0  0
 12 11  2  0  0  0  0
 15 14  3  0  0  0  0
M  RAD  1   3   2
M  END
