Coordinates from ORCA-job p-NO2-Ph-N2+-B3LYPG-aug-cc-pVDZ-scan-d09-49-n400
 OpenBabel09291715233D

 15 14  0  0  0  0  0  0  0  0999 V2000
   -2.1592   -0.2124   -0.6204 C   0  0  0  0  0  0  0  0  0  0  0  0
   -0.7400   -0.2548   -0.7432 C   0  0  0  0  0  0  0  0  0  0  0  0
   -0.3083    0.8667   -0.1577 C   0  0  0  0  0  0  0  0  0  0  0  0
   -0.6539    1.9882    0.4824 C   0  0  0  0  0  0  0  0  0  0  0  0
   -2.0764    1.9459    0.5589 C   0  0  0  0  0  0  0  0  0  0  0  0
   -2.7770    0.8668    0.0155 C   0  0  0  0  0  0  0  0  0  0  0  0
   -2.7453   -1.0364   -1.0317 H   0  0  0  0  0  0  0  0  0  0  0  0
   -0.1813   -1.0557   -1.2221 H   0  0  0  0  0  0  0  0  0  0  0  0
   -0.0338    2.7890    0.8786 H   0  0  0  0  0  0  0  0  0  0  0  0
   -2.5992    2.7700    1.0480 H   0  0  0  0  0  0  0  0  0  0  0  0
   -4.2640    0.8669    0.1198 N   0  0  0  0  0  0  0  0  0  0  0  0
   -4.8418   -0.0922   -0.3664 O   0  0  0  0  0  0  0  0  0  0  0  0
   -4.7682    1.8262    0.6816 O   0  0  0  0  0  0  0  0  0  0  0  0
    2.3296    0.8666   -0.3426 N   0  0  0  0  0  0  0  0  0  0  0  0
    3.4302    0.8665   -0.4196 N   0  0  0  0  0  0  0  0  0  0  0  0
  1  6  1  0  0  0  0
  2  1  2  0  0  0  0
  2  3  1  0  0  0  0
  3  4  2  0  0  0  0
  4  5  1  0  0  0  0
  4  9  1  0  0  0  0
  5 10  1  0  0  0  0
  6 11  1  0  0  0  0
  6  5  2  0  0  0  0
  7  1  1  0  0  0  0
  8  2  1  0  0  0  0
 11 13  2  0  0  0  0
 12 11  2  0  0  0  0
 15 14  3  0  0  0  0
M  RAD  1   3   2
M  END
