Coordinates from ORCA-job p-NO2-Ph-N2+-B3LYPG-aug-cc-pVDZ-scan-d09-49-n400
 OpenBabel09291715233D

 15 14  0  0  0  0  0  0  0  0999 V2000
   -2.2804   -0.2129   -0.6119 C   0  0  0  0  0  0  0  0  0  0  0  0
   -0.8569   -0.2576   -0.7364 C   0  0  0  0  0  0  0  0  0  0  0  0
   -0.4562    0.8666   -0.1474 C   0  0  0  0  0  0  0  0  0  0  0  0
   -0.7705    1.9907    0.4920 C   0  0  0  0  0  0  0  0  0  0  0  0
   -2.1974    1.9461    0.5678 C   0  0  0  0  0  0  0  0  0  0  0  0
   -2.8986    0.8666    0.0244 C   0  0  0  0  0  0  0  0  0  0  0  0
   -2.8637   -1.0391   -1.0245 H   0  0  0  0  0  0  0  0  0  0  0  0
   -0.2923   -1.0561   -1.2146 H   0  0  0  0  0  0  0  0  0  0  0  0
   -0.1445    2.7893    0.8864 H   0  0  0  0  0  0  0  0  0  0  0  0
   -2.7172    2.7723    1.0580 H   0  0  0  0  0  0  0  0  0  0  0  0
   -4.3852    0.8666    0.1290 N   0  0  0  0  0  0  0  0  0  0  0  0
   -4.9619   -0.0920   -0.3591 O   0  0  0  0  0  0  0  0  0  0  0  0
   -4.8881    1.8272    0.6893 O   0  0  0  0  0  0  0  0  0  0  0  0
    3.1117    0.8669   -0.3975 N   0  0  0  0  0  0  0  0  0  0  0  0
    4.2129    0.8670   -0.4745 N   0  0  0  0  0  0  0  0  0  0  0  0
  1  6  1  0  0  0  0
  2  1  2  0  0  0  0
  2  3  1  0  0  0  0
  3  4  2  0  0  0  0
  4  5  1  0  0  0  0
  4  9  1  0  0  0  0
  5 10  1  0  0  0  0
  6 11  1  0  0  0  0
  6  5  2  0  0  0  0
  7  1  1  0  0  0  0
  8  2  1  0  0  0  0
 11 13  2  0  0  0  0
 12 11  2  0  0  0  0
 15 14  3  0  0  0  0
M  RAD  1   3   2
M  END
