Coordinates from ORCA-job p-NO2-Ph-N2+-B3LYPG-aug-cc-pVDZ-scan-d09-49-n400
 OpenBabel09291715233D

 15 14  0  0  0  0  0  0  0  0999 V2000
   -2.3940   -0.2129   -0.6044 C   0  0  0  0  0  0  0  0  0  0  0  0
   -0.9701   -0.2582   -0.7293 C   0  0  0  0  0  0  0  0  0  0  0  0
   -0.5708    0.8661   -0.1400 C   0  0  0  0  0  0  0  0  0  0  0  0
   -0.8830    1.9906    0.4994 C   0  0  0  0  0  0  0  0  0  0  0  0
   -2.3103    1.9461    0.5751 C   0  0  0  0  0  0  0  0  0  0  0  0
   -3.0119    0.8668    0.0318 C   0  0  0  0  0  0  0  0  0  0  0  0
   -2.9769   -1.0393   -1.0173 H   0  0  0  0  0  0  0  0  0  0  0  0
   -0.4066   -1.0576   -1.2077 H   0  0  0  0  0  0  0  0  0  0  0  0
   -0.2575    2.7896    0.8942 H   0  0  0  0  0  0  0  0  0  0  0  0
   -2.8291    2.7729    1.0655 H   0  0  0  0  0  0  0  0  0  0  0  0
   -4.4986    0.8673    0.1364 N   0  0  0  0  0  0  0  0  0  0  0  0
   -5.0751   -0.0924   -0.3494 O   0  0  0  0  0  0  0  0  0  0  0  0
   -5.0007    1.8269    0.6990 O   0  0  0  0  0  0  0  0  0  0  0  0
    3.8473    0.8678   -0.4479 N   0  0  0  0  0  0  0  0  0  0  0  0
    4.9488    0.8680   -0.5244 N   0  0  0  0  0  0  0  0  0  0  0  0
  1  6  1  0  0  0  0
  2  1  2  0  0  0  0
  2  3  1  0  0  0  0
  3  4  2  0  0  0  0
  4  5  1  0  0  0  0
  4  9  1  0  0  0  0
  5 10  1  0  0  0  0
  6 11  1  0  0  0  0
  6  5  2  0  0  0  0
  7  1  1  0  0  0  0
  8  2  1  0  0  0  0
 11 13  2  0  0  0  0
 12 11  2  0  0  0  0
 15 14  3  0  0  0  0
M  RAD  1   3   2
M  END
