Coordinates from ORCA-job p-NO2-Ph-N2+-B3LYPG-aug-cc-pVDZ-scan-d09-49-n400
 OpenBabel09291715233D

 15 14  0  0  0  0  0  0  0  0999 V2000
   -2.2409   -0.2126   -0.6149 C   0  0  0  0  0  0  0  0  0  0  0  0
   -0.8179   -0.2575   -0.7393 C   0  0  0  0  0  0  0  0  0  0  0  0
   -0.4123    0.8667   -0.1505 C   0  0  0  0  0  0  0  0  0  0  0  0
   -0.7316    1.9909    0.4892 C   0  0  0  0  0  0  0  0  0  0  0  0
   -2.1580    1.9463    0.5647 C   0  0  0  0  0  0  0  0  0  0  0  0
   -2.8590    0.8668    0.0212 C   0  0  0  0  0  0  0  0  0  0  0  0
   -2.8248   -1.0384   -1.0273 H   0  0  0  0  0  0  0  0  0  0  0  0
   -0.2543   -1.0564   -1.2175 H   0  0  0  0  0  0  0  0  0  0  0  0
   -0.1066    2.7897    0.8840 H   0  0  0  0  0  0  0  0  0  0  0  0
   -2.6785    2.7721    1.0546 H   0  0  0  0  0  0  0  0  0  0  0  0
   -4.3456    0.8669    0.1255 N   0  0  0  0  0  0  0  0  0  0  0  0
   -4.9224   -0.0926   -0.3606 O   0  0  0  0  0  0  0  0  0  0  0  0
   -4.8487    1.8264    0.6877 O   0  0  0  0  0  0  0  0  0  0  0  0
    2.8556    0.8666   -0.3793 N   0  0  0  0  0  0  0  0  0  0  0  0
    3.9566    0.8666   -0.4562 N   0  0  0  0  0  0  0  0  0  0  0  0
  1  6  1  0  0  0  0
  2  1  2  0  0  0  0
  2  3  1  0  0  0  0
  3  4  2  0  0  0  0
  4  5  1  0  0  0  0
  4  9  1  0  0  0  0
  5 10  1  0  0  0  0
  6 11  1  0  0  0  0
  6  5  2  0  0  0  0
  7  1  1  0  0  0  0
  8  2  1  0  0  0  0
 11 13  2  0  0  0  0
 12 11  2  0  0  0  0
 15 14  3  0  0  0  0
M  RAD  1   3   2
M  END
