Coordinates from ORCA-job p-NO2-Ph-N2+-B3LYPG-aug-cc-pVDZ-scan-d09-49-n400
 OpenBabel09291715233D

 15 14  0  0  0  0  0  0  0  0999 V2000
   -2.2317   -0.2126   -0.6153 C   0  0  0  0  0  0  0  0  0  0  0  0
   -0.8092   -0.2571   -0.7396 C   0  0  0  0  0  0  0  0  0  0  0  0
   -0.4014    0.8667   -0.1512 C   0  0  0  0  0  0  0  0  0  0  0  0
   -0.7229    1.9905    0.4884 C   0  0  0  0  0  0  0  0  0  0  0  0
   -2.1488    1.9460    0.5641 C   0  0  0  0  0  0  0  0  0  0  0  0
   -2.8498    0.8667    0.0207 C   0  0  0  0  0  0  0  0  0  0  0  0
   -2.8155   -1.0383   -1.0277 H   0  0  0  0  0  0  0  0  0  0  0  0
   -0.2460   -1.0562   -1.2179 H   0  0  0  0  0  0  0  0  0  0  0  0
   -0.0983    2.7895    0.8833 H   0  0  0  0  0  0  0  0  0  0  0  0
   -2.6693    2.7718    1.0541 H   0  0  0  0  0  0  0  0  0  0  0  0
   -4.3365    0.8668    0.1252 N   0  0  0  0  0  0  0  0  0  0  0  0
   -4.9134   -0.0923   -0.3618 O   0  0  0  0  0  0  0  0  0  0  0  0
   -4.8397    1.8267    0.6865 O   0  0  0  0  0  0  0  0  0  0  0  0
    2.7965    0.8667   -0.3753 N   0  0  0  0  0  0  0  0  0  0  0  0
    3.8974    0.8667   -0.4523 N   0  0  0  0  0  0  0  0  0  0  0  0
  1  6  1  0  0  0  0
  2  1  2  0  0  0  0
  2  3  1  0  0  0  0
  3  4  2  0  0  0  0
  4  5  1  0  0  0  0
  4  9  1  0  0  0  0
  5 10  1  0  0  0  0
  6 11  1  0  0  0  0
  6  5  2  0  0  0  0
  7  1  1  0  0  0  0
  8  2  1  0  0  0  0
 11 13  2  0  0  0  0
 12 11  2  0  0  0  0
 15 14  3  0  0  0  0
M  RAD  1   3   2
M  END
