Coordinates from ORCA-job p-NO2-Ph-N2+-B3LYPG-aug-cc-pVDZ-scan-d09-49-n400
 OpenBabel09291715233D

 15 14  0  0  0  0  0  0  0  0999 V2000
   -2.1857   -0.2126   -0.6191 C   0  0  0  0  0  0  0  0  0  0  0  0
   -0.7642   -0.2557   -0.7422 C   0  0  0  0  0  0  0  0  0  0  0  0
   -0.3494    0.8667   -0.1549 C   0  0  0  0  0  0  0  0  0  0  0  0
   -0.6780    1.9893    0.4845 C   0  0  0  0  0  0  0  0  0  0  0  0
   -2.1028    1.9466    0.5606 C   0  0  0  0  0  0  0  0  0  0  0  0
   -2.8038    0.8671    0.0169 C   0  0  0  0  0  0  0  0  0  0  0  0
   -2.7705   -1.0375   -1.0311 H   0  0  0  0  0  0  0  0  0  0  0  0
   -0.2015   -1.0547   -1.2203 H   0  0  0  0  0  0  0  0  0  0  0  0
   -0.0541    2.7882    0.8795 H   0  0  0  0  0  0  0  0  0  0  0  0
   -2.6244    2.7716    1.0501 H   0  0  0  0  0  0  0  0  0  0  0  0
   -4.2905    0.8673    0.1210 N   0  0  0  0  0  0  0  0  0  0  0  0
   -4.8676   -0.0930   -0.3635 O   0  0  0  0  0  0  0  0  0  0  0  0
   -4.7940    1.8257    0.6847 O   0  0  0  0  0  0  0  0  0  0  0  0
    2.4986    0.8664   -0.3540 N   0  0  0  0  0  0  0  0  0  0  0  0
    3.5994    0.8663   -0.4309 N   0  0  0  0  0  0  0  0  0  0  0  0
  1  6  1  0  0  0  0
  2  1  2  0  0  0  0
  2  3  1  0  0  0  0
  3  4  2  0  0  0  0
  4  5  1  0  0  0  0
  4  9  1  0  0  0  0
  5 10  1  0  0  0  0
  6 11  1  0  0  0  0
  6  5  2  0  0  0  0
  7  1  1  0  0  0  0
  8  2  1  0  0  0  0
 11 13  2  0  0  0  0
 12 11  2  0  0  0  0
 15 14  3  0  0  0  0
M  RAD  1   3   2
M  END
