Coordinates from ORCA-job p-NO2-Ph-N2+-B3LYPG-aug-cc-pVDZ-scan-d09-49-n400
 OpenBabel09291715233D

 15 15  0  0  0  0  0  0  0  0999 V2000
   -2.0403   -0.2139   -0.6290 C   0  0  0  0  0  0  0  0  0  0  0  0
   -0.6486   -0.2319   -0.7368 C   0  0  0  0  0  0  0  0  0  0  0  0
   -0.0049    0.8667   -0.1789 C   0  0  0  0  0  0  0  0  0  0  0  0
   -0.5644    1.9652    0.4637 C   0  0  0  0  0  0  0  0  0  0  0  0
   -1.9574    1.9470    0.5517 C   0  0  0  0  0  0  0  0  0  0  0  0
   -2.6561    0.8665    0.0076 C   0  0  0  0  0  0  0  0  0  0  0  0
   -2.6459   -1.0239   -1.0311 H   0  0  0  0  0  0  0  0  0  0  0  0
   -0.1154   -1.0468   -1.2218 H   0  0  0  0  0  0  0  0  0  0  0  0
    0.0314    2.7801    0.8692 H   0  0  0  0  0  0  0  0  0  0  0  0
   -2.5009    2.7568    1.0347 H   0  0  0  0  0  0  0  0  0  0  0  0
   -4.1490    0.8663    0.1128 N   0  0  0  0  0  0  0  0  0  0  0  0
   -4.7297   -0.0903   -0.3754 O   0  0  0  0  0  0  0  0  0  0  0  0
   -4.6562    1.8261    0.6715 O   0  0  0  0  0  0  0  0  0  0  0  0
    1.5729    0.8668   -0.2899 N   0  0  0  0  0  0  0  0  0  0  0  0
    2.6761    0.8669   -0.3674 N   0  0  0  0  0  0  0  0  0  0  0  0
  1  6  1  0  0  0  0
  2  1  2  0  0  0  0
  2  3  1  0  0  0  0
  3  4  2  0  0  0  0
  4  5  1  0  0  0  0
  4  9  1  0  0  0  0
  5 10  1  0  0  0  0
  6 11  1  0  0  0  0
  6  5  2  0  0  0  0
  7  1  1  0  0  0  0
  8  2  1  0  0  0  0
 11 13  2  0  0  0  0
 12 11  2  0  0  0  0
 14  3  1  0  0  0  0
 15 14  1  0  0  0  0
M  RAD  2  14   2  15   3
M  END
