Coordinates from ORCA-job p-NO2-Ph-N2+-B3LYPG-aug-cc-pVDZ-scan-d09-49-n400
 OpenBabel09291715233D

 15 14  0  0  0  0  0  0  0  0999 V2000
   -2.4315   -0.2130   -0.6019 C   0  0  0  0  0  0  0  0  0  0  0  0
   -1.0076   -0.2586   -0.7269 C   0  0  0  0  0  0  0  0  0  0  0  0
   -0.6083    0.8657   -0.1376 C   0  0  0  0  0  0  0  0  0  0  0  0
   -0.9200    1.9903    0.5018 C   0  0  0  0  0  0  0  0  0  0  0  0
   -2.3474    1.9460    0.5777 C   0  0  0  0  0  0  0  0  0  0  0  0
   -3.0492    0.8668    0.0344 C   0  0  0  0  0  0  0  0  0  0  0  0
   -3.0145   -1.0394   -1.0147 H   0  0  0  0  0  0  0  0  0  0  0  0
   -0.4444   -1.0582   -1.2055 H   0  0  0  0  0  0  0  0  0  0  0  0
   -0.2945    2.7893    0.8966 H   0  0  0  0  0  0  0  0  0  0  0  0
   -2.8660    2.7729    1.0681 H   0  0  0  0  0  0  0  0  0  0  0  0
   -4.5359    0.8675    0.1392 N   0  0  0  0  0  0  0  0  0  0  0  0
   -5.1126   -0.0922   -0.3466 O   0  0  0  0  0  0  0  0  0  0  0  0
   -5.0378    1.8272    0.7018 O   0  0  0  0  0  0  0  0  0  0  0  0
    4.0899    0.8684   -0.4645 N   0  0  0  0  0  0  0  0  0  0  0  0
    5.1914    0.8688   -0.5408 N   0  0  0  0  0  0  0  0  0  0  0  0
  1  6  1  0  0  0  0
  2  1  2  0  0  0  0
  2  3  1  0  0  0  0
  3  4  2  0  0  0  0
  4  5  1  0  0  0  0
  4  9  1  0  0  0  0
  5 10  1  0  0  0  0
  6 11  1  0  0  0  0
  6  5  2  0  0  0  0
  7  1  1  0  0  0  0
  8  2  1  0  0  0  0
 11 13  2  0  0  0  0
 12 11  2  0  0  0  0
 15 14  3  0  0  0  0
M  RAD  1   3   2
M  END
