Coordinates from ORCA-job p-NO2-Ph-N2+-B3LYPG-aug-cc-pVDZ-scan-d09-49-n400
 OpenBabel09291715233D

 15 15  0  0  0  0  0  0  0  0999 V2000
   -2.0209   -0.2140   -0.6310 C   0  0  0  0  0  0  0  0  0  0  0  0
   -0.6355   -0.2276   -0.7355 C   0  0  0  0  0  0  0  0  0  0  0  0
    0.0622    0.8667   -0.1836 C   0  0  0  0  0  0  0  0  0  0  0  0
   -0.5515    1.9610    0.4603 C   0  0  0  0  0  0  0  0  0  0  0  0
   -1.9380    1.9476    0.5501 C   0  0  0  0  0  0  0  0  0  0  0  0
   -2.6375    0.8668    0.0056 C   0  0  0  0  0  0  0  0  0  0  0  0
   -2.6274   -1.0233   -1.0329 H   0  0  0  0  0  0  0  0  0  0  0  0
   -0.1069   -1.0459   -1.2218 H   0  0  0  0  0  0  0  0  0  0  0  0
    0.0398    2.7792    0.8682 H   0  0  0  0  0  0  0  0  0  0  0  0
   -2.4824    2.7570    1.0326 H   0  0  0  0  0  0  0  0  0  0  0  0
   -4.1321    0.8670    0.1104 N   0  0  0  0  0  0  0  0  0  0  0  0
   -4.7112   -0.0916   -0.3753 O   0  0  0  0  0  0  0  0  0  0  0  0
   -4.6377    1.8256    0.6720 O   0  0  0  0  0  0  0  0  0  0  0  0
    1.4401    0.8665   -0.2801 N   0  0  0  0  0  0  0  0  0  0  0  0
    2.5502    0.8665   -0.3578 N   0  0  0  0  0  0  0  0  0  0  0  0
  1  6  1  0  0  0  0
  2  1  2  0  0  0  0
  2  3  1  0  0  0  0
  3  4  2  0  0  0  0
  4  5  1  0  0  0  0
  4  9  1  0  0  0  0
  5 10  1  0  0  0  0
  6 11  1  0  0  0  0
  6  5  2  0  0  0  0
  7  1  1  0  0  0  0
  8  2  1  0  0  0  0
 11 13  2  0  0  0  0
 12 11  2  0  0  0  0
 14  3  1  0  0  0  0
 15 14  1  0  0  0  0
M  RAD  2  14   2  15   3
M  END
