Coordinates from ORCA-job p-NO2-Ph-N2+-B3LYPG-aug-cc-pVDZ-scan-d09-49-n400
 OpenBabel09291715233D

 15 14  0  0  0  0  0  0  0  0999 V2000
   -2.1806   -0.2126   -0.6191 C   0  0  0  0  0  0  0  0  0  0  0  0
   -0.7597   -0.2556   -0.7423 C   0  0  0  0  0  0  0  0  0  0  0  0
   -0.3412    0.8667   -0.1554 C   0  0  0  0  0  0  0  0  0  0  0  0
   -0.6736    1.9890    0.4841 C   0  0  0  0  0  0  0  0  0  0  0  0
   -2.0978    1.9462    0.5605 C   0  0  0  0  0  0  0  0  0  0  0  0
   -2.7987    0.8668    0.0169 C   0  0  0  0  0  0  0  0  0  0  0  0
   -2.7656   -1.0375   -1.0310 H   0  0  0  0  0  0  0  0  0  0  0  0
   -0.1980   -1.0550   -1.2206 H   0  0  0  0  0  0  0  0  0  0  0  0
   -0.0505    2.7884    0.8794 H   0  0  0  0  0  0  0  0  0  0  0  0
   -2.6195    2.7711    1.0500 H   0  0  0  0  0  0  0  0  0  0  0  0
   -4.2855    0.8669    0.1212 N   0  0  0  0  0  0  0  0  0  0  0  0
   -4.8628   -0.0925   -0.3648 O   0  0  0  0  0  0  0  0  0  0  0  0
   -4.7892    1.8262    0.6834 O   0  0  0  0  0  0  0  0  0  0  0  0
    2.4667    0.8666   -0.3521 N   0  0  0  0  0  0  0  0  0  0  0  0
    3.5675    0.8665   -0.4291 N   0  0  0  0  0  0  0  0  0  0  0  0
  1  6  1  0  0  0  0
  2  1  2  0  0  0  0
  2  3  1  0  0  0  0
  3  4  2  0  0  0  0
  4  5  1  0  0  0  0
  4  9  1  0  0  0  0
  5 10  1  0  0  0  0
  6 11  1  0  0  0  0
  6  5  2  0  0  0  0
  7  1  1  0  0  0  0
  8  2  1  0  0  0  0
 11 13  2  0  0  0  0
 12 11  2  0  0  0  0
 15 14  3  0  0  0  0
M  RAD  1   3   2
M  END
