Coordinates from ORCA-job p-NO2-Ph-N2+-B3LYPG-aug-cc-pVDZ-scan-d09-49-n400
 OpenBabel09291715233D

 15 14  0  0  0  0  0  0  0  0999 V2000
   -2.0991   -0.2123   -0.6248 C   0  0  0  0  0  0  0  0  0  0  0  0
   -0.6890   -0.2479   -0.7430 C   0  0  0  0  0  0  0  0  0  0  0  0
   -0.1900    0.8667   -0.1659 C   0  0  0  0  0  0  0  0  0  0  0  0
   -0.6035    1.9814    0.4750 C   0  0  0  0  0  0  0  0  0  0  0  0
   -2.0163    1.9461    0.5545 C   0  0  0  0  0  0  0  0  0  0  0  0
   -2.7159    0.8670    0.0109 C   0  0  0  0  0  0  0  0  0  0  0  0
   -2.6921   -1.0312   -1.0329 H   0  0  0  0  0  0  0  0  0  0  0  0
   -0.1404   -1.0536   -1.2238 H   0  0  0  0  0  0  0  0  0  0  0  0
    0.0069    2.7869    0.8746 H   0  0  0  0  0  0  0  0  0  0  0  0
   -2.5465    2.7651    1.0413 H   0  0  0  0  0  0  0  0  0  0  0  0
   -4.2044    0.8671    0.1151 N   0  0  0  0  0  0  0  0  0  0  0  0
   -4.7838   -0.0920   -0.3696 O   0  0  0  0  0  0  0  0  0  0  0  0
   -4.7103    1.8253    0.6778 O   0  0  0  0  0  0  0  0  0  0  0  0
    1.9479    0.8665   -0.3156 N   0  0  0  0  0  0  0  0  0  0  0  0
    3.0480    0.8664   -0.3926 N   0  0  0  0  0  0  0  0  0  0  0  0
  1  6  1  0  0  0  0
  2  1  2  0  0  0  0
  2  3  1  0  0  0  0
  3  4  2  0  0  0  0
  4  5  1  0  0  0  0
  4  9  1  0  0  0  0
  5 10  1  0  0  0  0
  6 11  1  0  0  0  0
  6  5  2  0  0  0  0
  7  1  1  0  0  0  0
  8  2  1  0  0  0  0
 11 13  2  0  0  0  0
 12 11  2  0  0  0  0
 15 14  3  0  0  0  0
M  RAD  1   3   2
M  END
