Coordinates from ORCA-job p-NO2-Ph-N2+-B3LYPG-aug-cc-pVDZ-scan-d09-49-n400
 OpenBabel09291715233D

 15 14  0  0  0  0  0  0  0  0999 V2000
   -2.4396   -0.2130   -0.6013 C   0  0  0  0  0  0  0  0  0  0  0  0
   -1.0157   -0.2587   -0.7264 C   0  0  0  0  0  0  0  0  0  0  0  0
   -0.6163    0.8656   -0.1371 C   0  0  0  0  0  0  0  0  0  0  0  0
   -0.9279    1.9902    0.5023 C   0  0  0  0  0  0  0  0  0  0  0  0
   -2.3553    1.9459    0.5782 C   0  0  0  0  0  0  0  0  0  0  0  0
   -3.0572    0.8668    0.0350 C   0  0  0  0  0  0  0  0  0  0  0  0
   -3.0226   -1.0394   -1.0142 H   0  0  0  0  0  0  0  0  0  0  0  0
   -0.4526   -1.0583   -1.2050 H   0  0  0  0  0  0  0  0  0  0  0  0
   -0.3025    2.7892    0.8971 H   0  0  0  0  0  0  0  0  0  0  0  0
   -2.8739    2.7729    1.0687 H   0  0  0  0  0  0  0  0  0  0  0  0
   -4.5439    0.8676    0.1398 N   0  0  0  0  0  0  0  0  0  0  0  0
   -5.1206   -0.0921   -0.3460 O   0  0  0  0  0  0  0  0  0  0  0  0
   -5.0457    1.8273    0.7024 O   0  0  0  0  0  0  0  0  0  0  0  0
    4.1419    0.8686   -0.4680 N   0  0  0  0  0  0  0  0  0  0  0  0
    5.2434    0.8690   -0.5443 N   0  0  0  0  0  0  0  0  0  0  0  0
  1  6  1  0  0  0  0
  2  1  2  0  0  0  0
  2  3  1  0  0  0  0
  3  4  2  0  0  0  0
  4  5  1  0  0  0  0
  4  9  1  0  0  0  0
  5 10  1  0  0  0  0
  6 11  1  0  0  0  0
  6  5  2  0  0  0  0
  7  1  1  0  0  0  0
  8  2  1  0  0  0  0
 11 13  2  0  0  0  0
 12 11  2  0  0  0  0
 15 14  3  0  0  0  0
M  RAD  1   3   2
M  END
