Coordinates from ORCA-job p-NO2-Ph-N2+-B3LYPG-aug-cc-pVDZ-scan-d09-49-n400
 OpenBabel09291715233D

 15 14  0  0  0  0  0  0  0  0999 V2000
   -2.1425   -0.2127   -0.6216 C   0  0  0  0  0  0  0  0  0  0  0  0
   -0.7244   -0.2537   -0.7436 C   0  0  0  0  0  0  0  0  0  0  0  0
   -0.2852    0.8667   -0.1593 C   0  0  0  0  0  0  0  0  0  0  0  0
   -0.6384    1.9871    0.4807 C   0  0  0  0  0  0  0  0  0  0  0  0
   -2.0597    1.9462    0.5579 C   0  0  0  0  0  0  0  0  0  0  0  0
   -2.7601    0.8668    0.0144 C   0  0  0  0  0  0  0  0  0  0  0  0
   -2.7301   -1.0357   -1.0323 H   0  0  0  0  0  0  0  0  0  0  0  0
   -0.1664   -1.0547   -1.2226 H   0  0  0  0  0  0  0  0  0  0  0  0
   -0.0190    2.7881    0.8770 H   0  0  0  0  0  0  0  0  0  0  0  0
   -2.5841    2.7692    1.0467 H   0  0  0  0  0  0  0  0  0  0  0  0
   -4.2472    0.8668    0.1188 N   0  0  0  0  0  0  0  0  0  0  0  0
   -4.8254   -0.0920   -0.3678 O   0  0  0  0  0  0  0  0  0  0  0  0
   -4.7518    1.8263    0.6801 O   0  0  0  0  0  0  0  0  0  0  0  0
    2.2227    0.8666   -0.3352 N   0  0  0  0  0  0  0  0  0  0  0  0
    3.3232    0.8666   -0.4122 N   0  0  0  0  0  0  0  0  0  0  0  0
  1  6  1  0  0  0  0
  2  1  2  0  0  0  0
  2  3  1  0  0  0  0
  3  4  2  0  0  0  0
  4  5  1  0  0  0  0
  4  9  1  0  0  0  0
  5 10  1  0  0  0  0
  6 11  1  0  0  0  0
  6  5  2  0  0  0  0
  7  1  1  0  0  0  0
  8  2  1  0  0  0  0
 11 13  2  0  0  0  0
 12 11  2  0  0  0  0
 15 14  3  0  0  0  0
M  RAD  1   3   2
M  END
