Coordinates from ORCA-job p-NO2-Ph-N2+-B3LYPG-aug-cc-pVDZ-scan-d09-49-n400
 OpenBabel09291715233D

 15 14  0  0  0  0  0  0  0  0999 V2000
   -2.4235   -0.2129   -0.6024 C   0  0  0  0  0  0  0  0  0  0  0  0
   -0.9996   -0.2585   -0.7274 C   0  0  0  0  0  0  0  0  0  0  0  0
   -0.6002    0.8658   -0.1381 C   0  0  0  0  0  0  0  0  0  0  0  0
   -0.9121    1.9903    0.5013 C   0  0  0  0  0  0  0  0  0  0  0  0
   -2.3394    1.9460    0.5771 C   0  0  0  0  0  0  0  0  0  0  0  0
   -3.0412    0.8668    0.0338 C   0  0  0  0  0  0  0  0  0  0  0  0
   -3.0064   -1.0394   -1.0153 H   0  0  0  0  0  0  0  0  0  0  0  0
   -0.4363   -1.0581   -1.2060 H   0  0  0  0  0  0  0  0  0  0  0  0
   -0.2866    2.7894    0.8961 H   0  0  0  0  0  0  0  0  0  0  0  0
   -2.8581    2.7729    1.0676 H   0  0  0  0  0  0  0  0  0  0  0  0
   -4.5279    0.8675    0.1386 N   0  0  0  0  0  0  0  0  0  0  0  0
   -5.1045   -0.0922   -0.3472 O   0  0  0  0  0  0  0  0  0  0  0  0
   -5.0298    1.8271    0.7012 O   0  0  0  0  0  0  0  0  0  0  0  0
    4.0379    0.8683   -0.4609 N   0  0  0  0  0  0  0  0  0  0  0  0
    5.1394    0.8686   -0.5373 N   0  0  0  0  0  0  0  0  0  0  0  0
  1  6  1  0  0  0  0
  2  1  2  0  0  0  0
  2  3  1  0  0  0  0
  3  4  2  0  0  0  0
  4  5  1  0  0  0  0
  4  9  1  0  0  0  0
  5 10  1  0  0  0  0
  6 11  1  0  0  0  0
  6  5  2  0  0  0  0
  7  1  1  0  0  0  0
  8  2  1  0  0  0  0
 11 13  2  0  0  0  0
 12 11  2  0  0  0  0
 15 14  3  0  0  0  0
M  RAD  1   3   2
M  END
