Coordinates from ORCA-job p-NO2-Ph-N2+-B3LYPG-aug-cc-pVDZ-scan-d09-49-n400
 OpenBabel09291715233D

 15 14  0  0  0  0  0  0  0  0999 V2000
   -2.1655   -0.2124   -0.6200 C   0  0  0  0  0  0  0  0  0  0  0  0
   -0.7458   -0.2552   -0.7430 C   0  0  0  0  0  0  0  0  0  0  0  0
   -0.3177    0.8667   -0.1570 C   0  0  0  0  0  0  0  0  0  0  0  0
   -0.6597    1.9886    0.4830 C   0  0  0  0  0  0  0  0  0  0  0  0
   -2.0827    1.9460    0.5593 C   0  0  0  0  0  0  0  0  0  0  0  0
   -2.7834    0.8668    0.0159 C   0  0  0  0  0  0  0  0  0  0  0  0
   -2.7513   -1.0367   -1.0315 H   0  0  0  0  0  0  0  0  0  0  0  0
   -0.1865   -1.0557   -1.2218 H   0  0  0  0  0  0  0  0  0  0  0  0
   -0.0390    2.7891    0.8790 H   0  0  0  0  0  0  0  0  0  0  0  0
   -2.6052    2.7703    1.0485 H   0  0  0  0  0  0  0  0  0  0  0  0
   -4.2704    0.8669    0.1202 N   0  0  0  0  0  0  0  0  0  0  0  0
   -4.8480   -0.0923   -0.3659 O   0  0  0  0  0  0  0  0  0  0  0  0
   -4.7744    1.8262    0.6822 O   0  0  0  0  0  0  0  0  0  0  0  0
    2.3702    0.8666   -0.3454 N   0  0  0  0  0  0  0  0  0  0  0  0
    3.4709    0.8665   -0.4224 N   0  0  0  0  0  0  0  0  0  0  0  0
  1  6  1  0  0  0  0
  2  1  2  0  0  0  0
  2  3  1  0  0  0  0
  3  4  2  0  0  0  0
  4  5  1  0  0  0  0
  4  9  1  0  0  0  0
  5 10  1  0  0  0  0
  6 11  1  0  0  0  0
  6  5  2  0  0  0  0
  7  1  1  0  0  0  0
  8  2  1  0  0  0  0
 11 13  2  0  0  0  0
 12 11  2  0  0  0  0
 15 14  3  0  0  0  0
M  RAD  1   3   2
M  END
