Coordinates from ORCA-job p-NO2-Ph-N2+-B3LYPG-aug-cc-pVDZ-scan-d09-49-n400
 OpenBabel09291715233D

 15 14  0  0  0  0  0  0  0  0999 V2000
   -2.2645   -0.2127   -0.6137 C   0  0  0  0  0  0  0  0  0  0  0  0
   -0.8409   -0.2572   -0.7377 C   0  0  0  0  0  0  0  0  0  0  0  0
   -0.4403    0.8667   -0.1487 C   0  0  0  0  0  0  0  0  0  0  0  0
   -0.7545    1.9907    0.4905 C   0  0  0  0  0  0  0  0  0  0  0  0
   -2.1815    1.9466    0.5661 C   0  0  0  0  0  0  0  0  0  0  0  0
   -2.8827    0.8671    0.0224 C   0  0  0  0  0  0  0  0  0  0  0  0
   -2.8478   -1.0387   -1.0264 H   0  0  0  0  0  0  0  0  0  0  0  0
   -0.2759   -1.0555   -1.2156 H   0  0  0  0  0  0  0  0  0  0  0  0
   -0.1282    2.7889    0.8849 H   0  0  0  0  0  0  0  0  0  0  0  0
   -2.7014    2.7728    1.0561 H   0  0  0  0  0  0  0  0  0  0  0  0
   -4.3693    0.8673    0.1265 N   0  0  0  0  0  0  0  0  0  0  0  0
   -4.9458   -0.0933   -0.3579 O   0  0  0  0  0  0  0  0  0  0  0  0
   -4.8720    1.8259    0.6905 O   0  0  0  0  0  0  0  0  0  0  0  0
    3.0077    0.8665   -0.3896 N   0  0  0  0  0  0  0  0  0  0  0  0
    4.1088    0.8664   -0.4663 N   0  0  0  0  0  0  0  0  0  0  0  0
  1  6  1  0  0  0  0
  2  1  2  0  0  0  0
  2  3  1  0  0  0  0
  3  4  2  0  0  0  0
  4  5  1  0  0  0  0
  4  9  1  0  0  0  0
  5 10  1  0  0  0  0
  6 11  1  0  0  0  0
  6  5  2  0  0  0  0
  7  1  1  0  0  0  0
  8  2  1  0  0  0  0
 11 13  2  0  0  0  0
 12 11  2  0  0  0  0
 15 14  3  0  0  0  0
M  RAD  1   3   2
M  END
