Coordinates from ORCA-job p-NO2-Ph-N2+-B3LYPG-aug-cc-pVDZ-scan-d09-49-n400
 OpenBabel09291715233D

 15 14  0  0  0  0  0  0  0  0999 V2000
   -2.3859   -0.2128   -0.6050 C   0  0  0  0  0  0  0  0  0  0  0  0
   -0.9621   -0.2581   -0.7298 C   0  0  0  0  0  0  0  0  0  0  0  0
   -0.5627    0.8661   -0.1405 C   0  0  0  0  0  0  0  0  0  0  0  0
   -0.8750    1.9906    0.4989 C   0  0  0  0  0  0  0  0  0  0  0  0
   -2.3023    1.9461    0.5746 C   0  0  0  0  0  0  0  0  0  0  0  0
   -3.0039    0.8668    0.0312 C   0  0  0  0  0  0  0  0  0  0  0  0
   -2.9688   -1.0393   -1.0179 H   0  0  0  0  0  0  0  0  0  0  0  0
   -0.3985   -1.0575   -1.2082 H   0  0  0  0  0  0  0  0  0  0  0  0
   -0.2496    2.7896    0.8937 H   0  0  0  0  0  0  0  0  0  0  0  0
   -2.8212    2.7729    1.0650 H   0  0  0  0  0  0  0  0  0  0  0  0
   -4.4906    0.8673    0.1358 N   0  0  0  0  0  0  0  0  0  0  0  0
   -5.0671   -0.0925   -0.3500 O   0  0  0  0  0  0  0  0  0  0  0  0
   -4.9928    1.8269    0.6984 O   0  0  0  0  0  0  0  0  0  0  0  0
    3.7953    0.8676   -0.4443 N   0  0  0  0  0  0  0  0  0  0  0  0
    4.8968    0.8678   -0.5209 N   0  0  0  0  0  0  0  0  0  0  0  0
  1  6  1  0  0  0  0
  2  1  2  0  0  0  0
  2  3  1  0  0  0  0
  3  4  2  0  0  0  0
  4  5  1  0  0  0  0
  4  9  1  0  0  0  0
  5 10  1  0  0  0  0
  6 11  1  0  0  0  0
  6  5  2  0  0  0  0
  7  1  1  0  0  0  0
  8  2  1  0  0  0  0
 11 13  2  0  0  0  0
 12 11  2  0  0  0  0
 15 14  3  0  0  0  0
M  RAD  1   3   2
M  END
