Coordinates from ORCA-job p-NO2-Ph-N2+-B3LYPG-aug-cc-pVDZ-scan-d09-49-n400
 OpenBabel09291715233D

 15 15  0  0  0  0  0  0  0  0999 V2000
   -2.0591   -0.2131   -0.6278 C   0  0  0  0  0  0  0  0  0  0  0  0
   -0.6604   -0.2381   -0.7395 C   0  0  0  0  0  0  0  0  0  0  0  0
   -0.0730    0.8667   -0.1741 C   0  0  0  0  0  0  0  0  0  0  0  0
   -0.5757    1.9715    0.4677 C   0  0  0  0  0  0  0  0  0  0  0  0
   -1.9762    1.9467    0.5523 C   0  0  0  0  0  0  0  0  0  0  0  0
   -2.6748    0.8668    0.0083 C   0  0  0  0  0  0  0  0  0  0  0  0
   -2.6613   -1.0255   -1.0317 H   0  0  0  0  0  0  0  0  0  0  0  0
   -0.1215   -1.0492   -1.2227 H   0  0  0  0  0  0  0  0  0  0  0  0
    0.0255    2.7826    0.8710 H   0  0  0  0  0  0  0  0  0  0  0  0
   -2.5161    2.7591    1.0361 H   0  0  0  0  0  0  0  0  0  0  0  0
   -4.1659    0.8669    0.1128 N   0  0  0  0  0  0  0  0  0  0  0  0
   -4.7467   -0.0912   -0.3726 O   0  0  0  0  0  0  0  0  0  0  0  0
   -4.6732    1.8252    0.6743 O   0  0  0  0  0  0  0  0  0  0  0  0
    1.6948    0.8666   -0.2980 N   0  0  0  0  0  0  0  0  0  0  0  0
    2.7953    0.8665   -0.3751 N   0  0  0  0  0  0  0  0  0  0  0  0
  1  6  1  0  0  0  0
  2  1  2  0  0  0  0
  2  3  1  0  0  0  0
  3  4  2  0  0  0  0
  4  5  1  0  0  0  0
  4  9  1  0  0  0  0
  5 10  1  0  0  0  0
  6 11  1  0  0  0  0
  6  5  2  0  0  0  0
  7  1  1  0  0  0  0
  8  2  1  0  0  0  0
 11 13  2  0  0  0  0
 12 11  2  0  0  0  0
 14  3  1  0  0  0  0
 15 14  1  0  0  0  0
M  RAD  2  14   2  15   3
M  END
