Coordinates from ORCA-job p-NO2-Ph-N2+-B3LYPG-aug-cc-pVDZ-scan-d09-49-n400
 OpenBabel09291715233D

 15 15  0  0  0  0  0  0  0  0999 V2000
   -2.0561   -0.2132   -0.6281 C   0  0  0  0  0  0  0  0  0  0  0  0
   -0.6586   -0.2370   -0.7391 C   0  0  0  0  0  0  0  0  0  0  0  0
   -0.0621    0.8667   -0.1749 C   0  0  0  0  0  0  0  0  0  0  0  0
   -0.5739    1.9704    0.4670 C   0  0  0  0  0  0  0  0  0  0  0  0
   -1.9732    1.9468    0.5521 C   0  0  0  0  0  0  0  0  0  0  0  0
   -2.6718    0.8668    0.0081 C   0  0  0  0  0  0  0  0  0  0  0  0
   -2.6590   -1.0250   -1.0316 H   0  0  0  0  0  0  0  0  0  0  0  0
   -0.1206   -1.0488   -1.2225 H   0  0  0  0  0  0  0  0  0  0  0  0
    0.0264    2.7821    0.8707 H   0  0  0  0  0  0  0  0  0  0  0  0
   -2.5139    2.7587    1.0358 H   0  0  0  0  0  0  0  0  0  0  0  0
   -4.1632    0.8669    0.1126 N   0  0  0  0  0  0  0  0  0  0  0  0
   -4.7440   -0.0912   -0.3727 O   0  0  0  0  0  0  0  0  0  0  0  0
   -4.6705    1.8251    0.6742 O   0  0  0  0  0  0  0  0  0  0  0  0
    1.6758    0.8666   -0.2966 N   0  0  0  0  0  0  0  0  0  0  0  0
    2.7765    0.8665   -0.3737 N   0  0  0  0  0  0  0  0  0  0  0  0
  1  6  1  0  0  0  0
  2  1  2  0  0  0  0
  2  3  1  0  0  0  0
  3  4  2  0  0  0  0
  4  5  1  0  0  0  0
  4  9  1  0  0  0  0
  5 10  1  0  0  0  0
  6 11  1  0  0  0  0
  6  5  2  0  0  0  0
  7  1  1  0  0  0  0
  8  2  1  0  0  0  0
 11 13  2  0  0  0  0
 12 11  2  0  0  0  0
 14  3  1  0  0  0  0
 15 14  1  0  0  0  0
M  RAD  2  14   2  15   3
M  END
