Coordinates from ORCA-job p-NO2-Ph-N2+-B3LYPG-aug-cc-pVDZ-scan-d09-49-n400
 OpenBabel09291715233D

 15 15  0  0  0  0  0  0  0  0999 V2000
   -1.9863   -0.2141   -0.6325 C   0  0  0  0  0  0  0  0  0  0  0  0
   -0.6153   -0.2294   -0.7380 C   0  0  0  0  0  0  0  0  0  0  0  0
    0.2013    0.8678   -0.1953 C   0  0  0  0  0  0  0  0  0  0  0  0
   -0.5313    1.9630    0.4595 C   0  0  0  0  0  0  0  0  0  0  0  0
   -1.9034    1.9470    0.5479 C   0  0  0  0  0  0  0  0  0  0  0  0
   -2.6077    0.8664    0.0044 C   0  0  0  0  0  0  0  0  0  0  0  0
   -2.5909   -1.0260   -1.0349 H   0  0  0  0  0  0  0  0  0  0  0  0
   -0.0769   -1.0447   -1.2229 H   0  0  0  0  0  0  0  0  0  0  0  0
    0.0697    2.7781    0.8650 H   0  0  0  0  0  0  0  0  0  0  0  0
   -2.4458    2.7582    1.0323 H   0  0  0  0  0  0  0  0  0  0  0  0
   -4.1024    0.8658    0.1104 N   0  0  0  0  0  0  0  0  0  0  0  0
   -4.6778   -0.0911   -0.3818 O   0  0  0  0  0  0  0  0  0  0  0  0
   -4.6040    1.8275    0.6695 O   0  0  0  0  0  0  0  0  0  0  0  0
    1.1692    0.8670   -0.2619 N   0  0  0  0  0  0  0  0  0  0  0  0
    2.3130    0.8661   -0.3405 N   0  0  0  0  0  0  0  0  0  0  0  0
  1  6  1  0  0  0  0
  2  1  2  0  0  0  0
  2  3  1  0  0  0  0
  3  4  2  0  0  0  0
  4  5  1  0  0  0  0
  4  9  1  0  0  0  0
  5 10  1  0  0  0  0
  6 11  1  0  0  0  0
  6  5  2  0  0  0  0
  7  1  1  0  0  0  0
  8  2  1  0  0  0  0
 11 13  2  0  0  0  0
 12 11  2  0  0  0  0
 14  3  1  0  0  0  0
 15 14  1  0  0  0  0
M  RAD  2  14   2  15   3
M  END
