Coordinates from ORCA-job p-NO2-Ph-N2+-B3LYPG-aug-cc-pVDZ-scan-d09-49-n400
 OpenBabel09291715233D

 15 14  0  0  0  0  0  0  0  0999 V2000
   -2.0748   -0.2127   -0.6265 C   0  0  0  0  0  0  0  0  0  0  0  0
   -0.6712   -0.2425   -0.7412 C   0  0  0  0  0  0  0  0  0  0  0  0
   -0.1230    0.8667   -0.1705 C   0  0  0  0  0  0  0  0  0  0  0  0
   -0.5861    1.9759    0.4709 C   0  0  0  0  0  0  0  0  0  0  0  0
   -1.9920    1.9463    0.5531 C   0  0  0  0  0  0  0  0  0  0  0  0
   -2.6909    0.8668    0.0094 C   0  0  0  0  0  0  0  0  0  0  0  0
   -2.6733   -1.0277   -1.0322 H   0  0  0  0  0  0  0  0  0  0  0  0
   -0.1282   -1.0512   -1.2234 H   0  0  0  0  0  0  0  0  0  0  0  0
    0.0190    2.7846    0.8725 H   0  0  0  0  0  0  0  0  0  0  0  0
   -2.5280    2.7614    1.0381 H   0  0  0  0  0  0  0  0  0  0  0  0
   -4.1807    0.8669    0.1139 N   0  0  0  0  0  0  0  0  0  0  0  0
   -4.7612   -0.0914   -0.3716 O   0  0  0  0  0  0  0  0  0  0  0  0
   -4.6877    1.8253    0.6755 O   0  0  0  0  0  0  0  0  0  0  0  0
    1.7948    0.8665   -0.3050 N   0  0  0  0  0  0  0  0  0  0  0  0
    2.8947    0.8665   -0.3821 N   0  0  0  0  0  0  0  0  0  0  0  0
  1  6  1  0  0  0  0
  2  1  2  0  0  0  0
  2  3  1  0  0  0  0
  3  4  2  0  0  0  0
  4  5  1  0  0  0  0
  4  9  1  0  0  0  0
  5 10  1  0  0  0  0
  6 11  1  0  0  0  0
  6  5  2  0  0  0  0
  7  1  1  0  0  0  0
  8  2  1  0  0  0  0
 11 13  2  0  0  0  0
 12 11  2  0  0  0  0
 15 14  3  0  0  0  0
M  RAD  1   3   2
M  END
