Coordinates from ORCA-job p-NO2-Ph-N2+-B3LYPG-aug-cc-pVDZ-scan-d09-49-n400
 OpenBabel09291715233D

 15 14  0  0  0  0  0  0  0  0999 V2000
   -2.1095   -0.2123   -0.6239 C   0  0  0  0  0  0  0  0  0  0  0  0
   -0.6973   -0.2496   -0.7433 C   0  0  0  0  0  0  0  0  0  0  0  0
   -0.2144    0.8667   -0.1642 C   0  0  0  0  0  0  0  0  0  0  0  0
   -0.6117    1.9830    0.4765 C   0  0  0  0  0  0  0  0  0  0  0  0
   -2.0267    1.9459    0.5553 C   0  0  0  0  0  0  0  0  0  0  0  0
   -2.7265    0.8669    0.0119 C   0  0  0  0  0  0  0  0  0  0  0  0
   -2.7007   -1.0326   -1.0329 H   0  0  0  0  0  0  0  0  0  0  0  0
   -0.1465   -1.0541   -1.2237 H   0  0  0  0  0  0  0  0  0  0  0  0
    0.0008    2.7875    0.8754 H   0  0  0  0  0  0  0  0  0  0  0  0
   -2.5550    2.7662    1.0427 H   0  0  0  0  0  0  0  0  0  0  0  0
   -4.2146    0.8669    0.1162 N   0  0  0  0  0  0  0  0  0  0  0  0
   -4.7937   -0.0919   -0.3694 O   0  0  0  0  0  0  0  0  0  0  0  0
   -4.7201    1.8257    0.6781 O   0  0  0  0  0  0  0  0  0  0  0  0
    2.0135    0.8665   -0.3203 N   0  0  0  0  0  0  0  0  0  0  0  0
    3.1137    0.8665   -0.3974 N   0  0  0  0  0  0  0  0  0  0  0  0
  1  6  1  0  0  0  0
  2  1  2  0  0  0  0
  2  3  1  0  0  0  0
  3  4  2  0  0  0  0
  4  5  1  0  0  0  0
  4  9  1  0  0  0  0
  5 10  1  0  0  0  0
  6 11  1  0  0  0  0
  6  5  2  0  0  0  0
  7  1  1  0  0  0  0
  8  2  1  0  0  0  0
 11 13  2  0  0  0  0
 12 11  2  0  0  0  0
 15 14  3  0  0  0  0
M  RAD  1   3   2
M  END
