Coordinates from ORCA-job p-NO2-Ph-N2+-B3LYPG-aug-cc-pVDZ-scan-d09-49-n400
 OpenBabel09291715233D

 15 14  0  0  0  0  0  0  0  0999 V2000
   -2.1512   -0.2122   -0.6221 C   0  0  0  0  0  0  0  0  0  0  0  0
   -0.7320   -0.2541   -0.7438 C   0  0  0  0  0  0  0  0  0  0  0  0
   -0.3005    0.8668   -0.1584 C   0  0  0  0  0  0  0  0  0  0  0  0
   -0.6459    1.9879    0.4812 C   0  0  0  0  0  0  0  0  0  0  0  0
   -2.0684    1.9469    0.5576 C   0  0  0  0  0  0  0  0  0  0  0  0
   -2.7690    0.8675    0.0136 C   0  0  0  0  0  0  0  0  0  0  0  0
   -2.7382   -1.0356   -1.0334 H   0  0  0  0  0  0  0  0  0  0  0  0
   -0.1724   -1.0545   -1.2222 H   0  0  0  0  0  0  0  0  0  0  0  0
   -0.0250    2.7880    0.8773 H   0  0  0  0  0  0  0  0  0  0  0  0
   -2.5921    2.7706    1.0462 H   0  0  0  0  0  0  0  0  0  0  0  0
   -4.2560    0.8680    0.1171 N   0  0  0  0  0  0  0  0  0  0  0  0
   -4.8335   -0.0940   -0.3637 O   0  0  0  0  0  0  0  0  0  0  0  0
   -4.7599    1.8244    0.6843 O   0  0  0  0  0  0  0  0  0  0  0  0
    2.2775    0.8661   -0.3379 N   0  0  0  0  0  0  0  0  0  0  0  0
    3.3781    0.8657   -0.4145 N   0  0  0  0  0  0  0  0  0  0  0  0
  1  6  1  0  0  0  0
  2  1  2  0  0  0  0
  2  3  1  0  0  0  0
  3  4  2  0  0  0  0
  4  5  1  0  0  0  0
  4  9  1  0  0  0  0
  5 10  1  0  0  0  0
  6 11  1  0  0  0  0
  6  5  2  0  0  0  0
  7  1  1  0  0  0  0
  8  2  1  0  0  0  0
 11 13  2  0  0  0  0
 12 11  2  0  0  0  0
 15 14  3  0  0  0  0
M  RAD  1   3   2
M  END
