Coordinates from ORCA-job p-NO2-Ph-N2+-B3LYPG-aug-cc-pVDZ-scan-d09-49-n400
 OpenBabel09291715233D

 15 14  0  0  0  0  0  0  0  0999 V2000
   -2.1818   -0.2129   -0.6189 C   0  0  0  0  0  0  0  0  0  0  0  0
   -0.7605   -0.2557   -0.7422 C   0  0  0  0  0  0  0  0  0  0  0  0
   -0.3442    0.8667   -0.1551 C   0  0  0  0  0  0  0  0  0  0  0  0
   -0.6744    1.9891    0.4843 C   0  0  0  0  0  0  0  0  0  0  0  0
   -2.0989    1.9463    0.5609 C   0  0  0  0  0  0  0  0  0  0  0  0
   -2.7998    0.8667    0.0173 C   0  0  0  0  0  0  0  0  0  0  0  0
   -2.7668   -1.0378   -1.0307 H   0  0  0  0  0  0  0  0  0  0  0  0
   -0.1982   -1.0548   -1.2204 H   0  0  0  0  0  0  0  0  0  0  0  0
   -0.0507    2.7881    0.8793 H   0  0  0  0  0  0  0  0  0  0  0  0
   -2.6206    2.7711    1.0504 H   0  0  0  0  0  0  0  0  0  0  0  0
   -4.2865    0.8667    0.1218 N   0  0  0  0  0  0  0  0  0  0  0  0
   -4.8639   -0.0920   -0.3655 O   0  0  0  0  0  0  0  0  0  0  0  0
   -4.7903    1.8267    0.6826 O   0  0  0  0  0  0  0  0  0  0  0  0
    2.4737    0.8667   -0.3528 N   0  0  0  0  0  0  0  0  0  0  0  0
    3.5744    0.8667   -0.4299 N   0  0  0  0  0  0  0  0  0  0  0  0
  1  6  1  0  0  0  0
  2  1  2  0  0  0  0
  2  3  1  0  0  0  0
  3  4  2  0  0  0  0
  4  5  1  0  0  0  0
  4  9  1  0  0  0  0
  5 10  1  0  0  0  0
  6 11  1  0  0  0  0
  6  5  2  0  0  0  0
  7  1  1  0  0  0  0
  8  2  1  0  0  0  0
 11 13  2  0  0  0  0
 12 11  2  0  0  0  0
 15 14  3  0  0  0  0
M  RAD  1   3   2
M  END
