Coordinates from ORCA-job p-NO2-Ph-N2+-B3LYPG-aug-cc-pVDZ-scan-d09-49-n400
 OpenBabel09291715233D

 15 14  0  0  0  0  0  0  0  0999 V2000
   -2.4439   -0.2128   -0.6008 C   0  0  0  0  0  0  0  0  0  0  0  0
   -1.0204   -0.2589   -0.7261 C   0  0  0  0  0  0  0  0  0  0  0  0
   -0.6177    0.8655   -0.1370 C   0  0  0  0  0  0  0  0  0  0  0  0
   -0.9326    1.9903    0.5027 C   0  0  0  0  0  0  0  0  0  0  0  0
   -2.3596    1.9456    0.5784 C   0  0  0  0  0  0  0  0  0  0  0  0
   -3.0614    0.8667    0.0354 C   0  0  0  0  0  0  0  0  0  0  0  0
   -3.0270   -1.0392   -1.0136 H   0  0  0  0  0  0  0  0  0  0  0  0
   -0.4586   -1.0593   -1.2051 H   0  0  0  0  0  0  0  0  0  0  0  0
   -0.3083    2.7901    0.8980 H   0  0  0  0  0  0  0  0  0  0  0  0
   -2.8782    2.7726    1.0689 H   0  0  0  0  0  0  0  0  0  0  0  0
   -4.5482    0.8675    0.1402 N   0  0  0  0  0  0  0  0  0  0  0  0
   -5.1250   -0.0919   -0.3460 O   0  0  0  0  0  0  0  0  0  0  0  0
   -5.0500    1.8275    0.7024 O   0  0  0  0  0  0  0  0  0  0  0  0
    4.1704    0.8687   -0.4700 N   0  0  0  0  0  0  0  0  0  0  0  0
    5.2720    0.8692   -0.5464 N   0  0  0  0  0  0  0  0  0  0  0  0
  1  6  1  0  0  0  0
  2  1  2  0  0  0  0
  2  3  1  0  0  0  0
  3  4  2  0  0  0  0
  4  5  1  0  0  0  0
  4  9  1  0  0  0  0
  5 10  1  0  0  0  0
  6 11  1  0  0  0  0
  6  5  2  0  0  0  0
  7  1  1  0  0  0  0
  8  2  1  0  0  0  0
 11 13  2  0  0  0  0
 12 11  2  0  0  0  0
 15 14  3  0  0  0  0
M  RAD  1   3   2
M  END
