Coordinates from ORCA-job p-NO2-Ph-N2+-B3LYPG-aug-cc-pVDZ-scan-d09-49-n400
 OpenBabel09291715233D

 15 14  0  0  0  0  0  0  0  0999 V2000
   -2.3126   -0.2125   -0.6099 C   0  0  0  0  0  0  0  0  0  0  0  0
   -0.8892   -0.2579   -0.7346 C   0  0  0  0  0  0  0  0  0  0  0  0
   -0.4869    0.8666   -0.1454 C   0  0  0  0  0  0  0  0  0  0  0  0
   -0.8027    1.9911    0.4941 C   0  0  0  0  0  0  0  0  0  0  0  0
   -2.2295    1.9461    0.5695 C   0  0  0  0  0  0  0  0  0  0  0  0
   -2.9307    0.8669    0.0261 C   0  0  0  0  0  0  0  0  0  0  0  0
   -2.8958   -1.0387   -1.0227 H   0  0  0  0  0  0  0  0  0  0  0  0
   -0.3259   -1.0573   -1.2130 H   0  0  0  0  0  0  0  0  0  0  0  0
   -0.1778    2.7903    0.8892 H   0  0  0  0  0  0  0  0  0  0  0  0
   -2.7492    2.7725    1.0596 H   0  0  0  0  0  0  0  0  0  0  0  0
   -4.4175    0.8671    0.1304 N   0  0  0  0  0  0  0  0  0  0  0  0
   -4.9940   -0.0928   -0.3553 O   0  0  0  0  0  0  0  0  0  0  0  0
   -4.9201    1.8264    0.6931 O   0  0  0  0  0  0  0  0  0  0  0  0
    3.3211    0.8668   -0.4116 N   0  0  0  0  0  0  0  0  0  0  0  0
    4.4223    0.8669   -0.4884 N   0  0  0  0  0  0  0  0  0  0  0  0
  1  6  1  0  0  0  0
  2  1  2  0  0  0  0
  2  3  1  0  0  0  0
  3  4  2  0  0  0  0
  4  5  1  0  0  0  0
  4  9  1  0  0  0  0
  5 10  1  0  0  0  0
  6 11  1  0  0  0  0
  6  5  2  0  0  0  0
  7  1  1  0  0  0  0
  8  2  1  0  0  0  0
 11 13  2  0  0  0  0
 12 11  2  0  0  0  0
 15 14  3  0  0  0  0
M  RAD  1   3   2
M  END
