Coordinates from ORCA-job p-NO2-Ph-N2+-B3LYPG-aug-cc-pVDZ-scan-d09-49-n400
 OpenBabel09291715233D

 15 14  0  0  0  0  0  0  0  0999 V2000
   -2.2158   -0.2126   -0.6167 C   0  0  0  0  0  0  0  0  0  0  0  0
   -0.7934   -0.2565   -0.7405 C   0  0  0  0  0  0  0  0  0  0  0  0
   -0.3849    0.8667   -0.1524 C   0  0  0  0  0  0  0  0  0  0  0  0
   -0.7072    1.9900    0.4870 C   0  0  0  0  0  0  0  0  0  0  0  0
   -2.1329    1.9463    0.5629 C   0  0  0  0  0  0  0  0  0  0  0  0
   -2.8340    0.8669    0.0193 C   0  0  0  0  0  0  0  0  0  0  0  0
   -2.7997   -1.0382   -1.0291 H   0  0  0  0  0  0  0  0  0  0  0  0
   -0.2298   -1.0553   -1.2186 H   0  0  0  0  0  0  0  0  0  0  0  0
   -0.0823    2.7887    0.8817 H   0  0  0  0  0  0  0  0  0  0  0  0
   -2.6535    2.7720    1.0527 H   0  0  0  0  0  0  0  0  0  0  0  0
   -4.3206    0.8670    0.1236 N   0  0  0  0  0  0  0  0  0  0  0  0
   -4.8975   -0.0927   -0.3622 O   0  0  0  0  0  0  0  0  0  0  0  0
   -4.8239    1.8262    0.6861 O   0  0  0  0  0  0  0  0  0  0  0  0
    2.6930    0.8665   -0.3679 N   0  0  0  0  0  0  0  0  0  0  0  0
    3.7939    0.8665   -0.4448 N   0  0  0  0  0  0  0  0  0  0  0  0
  1  6  1  0  0  0  0
  2  1  2  0  0  0  0
  2  3  1  0  0  0  0
  3  4  2  0  0  0  0
  4  5  1  0  0  0  0
  4  9  1  0  0  0  0
  5 10  1  0  0  0  0
  6 11  1  0  0  0  0
  6  5  2  0  0  0  0
  7  1  1  0  0  0  0
  8  2  1  0  0  0  0
 11 13  2  0  0  0  0
 12 11  2  0  0  0  0
 15 14  3  0  0  0  0
M  RAD  1   3   2
M  END
