Coordinates from ORCA-job p-NO2-Ph-N2+-B3LYPG-aug-cc-pVDZ-scan-d09-49-n400
 OpenBabel09291715233D

 15 14  0  0  0  0  0  0  0  0999 V2000
   -2.3672   -0.2128   -0.6062 C   0  0  0  0  0  0  0  0  0  0  0  0
   -0.9434   -0.2580   -0.7310 C   0  0  0  0  0  0  0  0  0  0  0  0
   -0.5440    0.8663   -0.1417 C   0  0  0  0  0  0  0  0  0  0  0  0
   -0.8565    1.9907    0.4976 C   0  0  0  0  0  0  0  0  0  0  0  0
   -2.2838    1.9462    0.5733 C   0  0  0  0  0  0  0  0  0  0  0  0
   -2.9853    0.8668    0.0299 C   0  0  0  0  0  0  0  0  0  0  0  0
   -2.9501   -1.0393   -1.0191 H   0  0  0  0  0  0  0  0  0  0  0  0
   -0.3797   -1.0573   -1.2094 H   0  0  0  0  0  0  0  0  0  0  0  0
   -0.2310    2.7897    0.8925 H   0  0  0  0  0  0  0  0  0  0  0  0
   -2.8028    2.7729    1.0637 H   0  0  0  0  0  0  0  0  0  0  0  0
   -4.4719    0.8672    0.1344 N   0  0  0  0  0  0  0  0  0  0  0  0
   -5.0484   -0.0926   -0.3514 O   0  0  0  0  0  0  0  0  0  0  0  0
   -4.9742    1.8267    0.6970 O   0  0  0  0  0  0  0  0  0  0  0  0
    3.6741    0.8674   -0.4360 N   0  0  0  0  0  0  0  0  0  0  0  0
    4.7755    0.8675   -0.5126 N   0  0  0  0  0  0  0  0  0  0  0  0
  1  6  1  0  0  0  0
  2  1  2  0  0  0  0
  2  3  1  0  0  0  0
  3  4  2  0  0  0  0
  4  5  1  0  0  0  0
  4  9  1  0  0  0  0
  5 10  1  0  0  0  0
  6 11  1  0  0  0  0
  6  5  2  0  0  0  0
  7  1  1  0  0  0  0
  8  2  1  0  0  0  0
 11 13  2  0  0  0  0
 12 11  2  0  0  0  0
 15 14  3  0  0  0  0
M  RAD  1   3   2
M  END
