Coordinates from ORCA-job p-NO2-Ph-N2+-B3LYPG-aug-cc-pVDZ-scan-d09-49-n400
 OpenBabel09291715233D

 15 14  0  0  0  0  0  0  0  0999 V2000
   -2.2711   -0.2128   -0.6130 C   0  0  0  0  0  0  0  0  0  0  0  0
   -0.8474   -0.2575   -0.7373 C   0  0  0  0  0  0  0  0  0  0  0  0
   -0.4473    0.8667   -0.1481 C   0  0  0  0  0  0  0  0  0  0  0  0
   -0.7610    1.9909    0.4911 C   0  0  0  0  0  0  0  0  0  0  0  0
   -2.1881    1.9465    0.5667 C   0  0  0  0  0  0  0  0  0  0  0  0
   -2.8893    0.8669    0.0231 C   0  0  0  0  0  0  0  0  0  0  0  0
   -2.8546   -1.0388   -1.0257 H   0  0  0  0  0  0  0  0  0  0  0  0
   -0.2825   -1.0558   -1.2152 H   0  0  0  0  0  0  0  0  0  0  0  0
   -0.1347    2.7891    0.8855 H   0  0  0  0  0  0  0  0  0  0  0  0
   -2.7081    2.7726    1.0568 H   0  0  0  0  0  0  0  0  0  0  0  0
   -4.3758    0.8671    0.1274 N   0  0  0  0  0  0  0  0  0  0  0  0
   -4.9524   -0.0929   -0.3581 O   0  0  0  0  0  0  0  0  0  0  0  0
   -4.8786    1.8263    0.6903 O   0  0  0  0  0  0  0  0  0  0  0  0
    3.0507    0.8666   -0.3928 N   0  0  0  0  0  0  0  0  0  0  0  0
    4.1518    0.8666   -0.4696 N   0  0  0  0  0  0  0  0  0  0  0  0
  1  6  1  0  0  0  0
  2  1  2  0  0  0  0
  2  3  1  0  0  0  0
  3  4  2  0  0  0  0
  4  5  1  0  0  0  0
  4  9  1  0  0  0  0
  5 10  1  0  0  0  0
  6 11  1  0  0  0  0
  6  5  2  0  0  0  0
  7  1  1  0  0  0  0
  8  2  1  0  0  0  0
 11 13  2  0  0  0  0
 12 11  2  0  0  0  0
 15 14  3  0  0  0  0
M  RAD  1   3   2
M  END
