Coordinates from ORCA-job p-NO2-Ph-N2+-B3LYPG-aug-cc-pVDZ-scan-d09-49-n400
 OpenBabel09291715233D

 15 14  0  0  0  0  0  0  0  0999 V2000
   -2.3635   -0.2126   -0.6063 C   0  0  0  0  0  0  0  0  0  0  0  0
   -0.9401   -0.2582   -0.7312 C   0  0  0  0  0  0  0  0  0  0  0  0
   -0.5374    0.8663   -0.1421 C   0  0  0  0  0  0  0  0  0  0  0  0
   -0.8532    1.9909    0.4976 C   0  0  0  0  0  0  0  0  0  0  0  0
   -2.2801    1.9459    0.5730 C   0  0  0  0  0  0  0  0  0  0  0  0
   -2.9815    0.8668    0.0298 C   0  0  0  0  0  0  0  0  0  0  0  0
   -2.9464   -1.0390   -1.0191 H   0  0  0  0  0  0  0  0  0  0  0  0
   -0.3775   -1.0581   -1.2099 H   0  0  0  0  0  0  0  0  0  0  0  0
   -0.2288    2.7905    0.8928 H   0  0  0  0  0  0  0  0  0  0  0  0
   -2.7992    2.7725    1.0634 H   0  0  0  0  0  0  0  0  0  0  0  0
   -4.4682    0.8671    0.1343 N   0  0  0  0  0  0  0  0  0  0  0  0
   -5.0447   -0.0924   -0.3520 O   0  0  0  0  0  0  0  0  0  0  0  0
   -4.9706    1.8269    0.6965 O   0  0  0  0  0  0  0  0  0  0  0  0
    3.6506    0.8674   -0.4345 N   0  0  0  0  0  0  0  0  0  0  0  0
    4.7520    0.8675   -0.5111 N   0  0  0  0  0  0  0  0  0  0  0  0
  1  6  1  0  0  0  0
  2  1  2  0  0  0  0
  2  3  1  0  0  0  0
  3  4  2  0  0  0  0
  4  5  1  0  0  0  0
  4  9  1  0  0  0  0
  5 10  1  0  0  0  0
  6 11  1  0  0  0  0
  6  5  2  0  0  0  0
  7  1  1  0  0  0  0
  8  2  1  0  0  0  0
 11 13  2  0  0  0  0
 12 11  2  0  0  0  0
 15 14  3  0  0  0  0
M  RAD  1   3   2
M  END
