Coordinates from ORCA-job p-NO2-Ph-N2+-B3LYPG-aug-cc-pVDZ-scan-d09-49-n400
 OpenBabel09291715233D

 15 14  0  0  0  0  0  0  0  0999 V2000
   -2.1527   -0.2125   -0.6210 C   0  0  0  0  0  0  0  0  0  0  0  0
   -0.7337   -0.2547   -0.7436 C   0  0  0  0  0  0  0  0  0  0  0  0
   -0.3001    0.8667   -0.1583 C   0  0  0  0  0  0  0  0  0  0  0  0
   -0.6476    1.9882    0.4819 C   0  0  0  0  0  0  0  0  0  0  0  0
   -2.0699    1.9462    0.5585 C   0  0  0  0  0  0  0  0  0  0  0  0
   -2.7704    0.8668    0.0150 C   0  0  0  0  0  0  0  0  0  0  0  0
   -2.7396   -1.0361   -1.0320 H   0  0  0  0  0  0  0  0  0  0  0  0
   -0.1751   -1.0555   -1.2224 H   0  0  0  0  0  0  0  0  0  0  0  0
   -0.0276    2.7889    0.8781 H   0  0  0  0  0  0  0  0  0  0  0  0
   -2.5936    2.7697    1.0474 H   0  0  0  0  0  0  0  0  0  0  0  0
   -4.2574    0.8669    0.1192 N   0  0  0  0  0  0  0  0  0  0  0  0
   -4.8353   -0.0923   -0.3667 O   0  0  0  0  0  0  0  0  0  0  0  0
   -4.7617    1.8261    0.6813 O   0  0  0  0  0  0  0  0  0  0  0  0
    2.2878    0.8666   -0.3396 N   0  0  0  0  0  0  0  0  0  0  0  0
    3.3884    0.8665   -0.4166 N   0  0  0  0  0  0  0  0  0  0  0  0
  1  6  1  0  0  0  0
  2  1  2  0  0  0  0
  2  3  1  0  0  0  0
  3  4  2  0  0  0  0
  4  5  1  0  0  0  0
  4  9  1  0  0  0  0
  5 10  1  0  0  0  0
  6 11  1  0  0  0  0
  6  5  2  0  0  0  0
  7  1  1  0  0  0  0
  8  2  1  0  0  0  0
 11 13  2  0  0  0  0
 12 11  2  0  0  0  0
 15 14  3  0  0  0  0
M  RAD  1   3   2
M  END
