Coordinates from ORCA-job p-NO2-Ph-N2+-B3LYPG-aug-cc-pVDZ-scan-d09-49-n400
 OpenBabel09291715233D

 15 15  0  0  0  0  0  0  0  0999 V2000
   -2.0727   -0.2127   -0.6269 C   0  0  0  0  0  0  0  0  0  0  0  0
   -0.6698   -0.2419   -0.7410 C   0  0  0  0  0  0  0  0  0  0  0  0
   -0.1162    0.8667   -0.1711 C   0  0  0  0  0  0  0  0  0  0  0  0
   -0.5848    1.9754    0.4704 C   0  0  0  0  0  0  0  0  0  0  0  0
   -1.9899    1.9464    0.5528 C   0  0  0  0  0  0  0  0  0  0  0  0
   -2.6888    0.8670    0.0090 C   0  0  0  0  0  0  0  0  0  0  0  0
   -2.6718   -1.0273   -1.0322 H   0  0  0  0  0  0  0  0  0  0  0  0
   -0.1273   -1.0510   -1.2232 H   0  0  0  0  0  0  0  0  0  0  0  0
    0.0198    2.7843    0.8723 H   0  0  0  0  0  0  0  0  0  0  0  0
   -2.5265    2.7612    1.0377 H   0  0  0  0  0  0  0  0  0  0  0  0
   -4.1788    0.8671    0.1133 N   0  0  0  0  0  0  0  0  0  0  0  0
   -4.7593   -0.0916   -0.3712 O   0  0  0  0  0  0  0  0  0  0  0  0
   -4.6857    1.8250    0.6758 O   0  0  0  0  0  0  0  0  0  0  0  0
    1.7816    0.8665   -0.3039 N   0  0  0  0  0  0  0  0  0  0  0  0
    2.8816    0.8664   -0.3809 N   0  0  0  0  0  0  0  0  0  0  0  0
  1  6  1  0  0  0  0
  2  1  2  0  0  0  0
  2  3  1  0  0  0  0
  3  4  2  0  0  0  0
  4  5  1  0  0  0  0
  4  9  1  0  0  0  0
  5 10  1  0  0  0  0
  6 11  1  0  0  0  0
  6  5  2  0  0  0  0
  7  1  1  0  0  0  0
  8  2  1  0  0  0  0
 11 13  2  0  0  0  0
 12 11  2  0  0  0  0
 14  3  1  0  0  0  0
 15 14  1  0  0  0  0
M  RAD  2  14   2  15   3
M  END
