Coordinates from ORCA-job p-NO2-Ph-N2+-B3LYPG-aug-cc-pVDZ-scan-d09-49-n400
 OpenBabel09291715233D

 15 14  0  0  0  0  0  0  0  0999 V2000
   -2.1489   -0.2126   -0.6213 C   0  0  0  0  0  0  0  0  0  0  0  0
   -0.7302   -0.2544   -0.7437 C   0  0  0  0  0  0  0  0  0  0  0  0
   -0.2945    0.8667   -0.1586 C   0  0  0  0  0  0  0  0  0  0  0  0
   -0.6442    1.9878    0.4814 C   0  0  0  0  0  0  0  0  0  0  0  0
   -2.0661    1.9462    0.5582 C   0  0  0  0  0  0  0  0  0  0  0  0
   -2.7665    0.8668    0.0147 C   0  0  0  0  0  0  0  0  0  0  0  0
   -2.7361   -1.0359   -1.0322 H   0  0  0  0  0  0  0  0  0  0  0  0
   -0.1719   -1.0553   -1.2225 H   0  0  0  0  0  0  0  0  0  0  0  0
   -0.0245    2.7887    0.8777 H   0  0  0  0  0  0  0  0  0  0  0  0
   -2.5901    2.7696    1.0471 H   0  0  0  0  0  0  0  0  0  0  0  0
   -4.2536    0.8669    0.1190 N   0  0  0  0  0  0  0  0  0  0  0  0
   -4.8315   -0.0922   -0.3670 O   0  0  0  0  0  0  0  0  0  0  0  0
   -4.7579    1.8261    0.6810 O   0  0  0  0  0  0  0  0  0  0  0  0
    2.2634    0.8666   -0.3379 N   0  0  0  0  0  0  0  0  0  0  0  0
    3.3640    0.8665   -0.4149 N   0  0  0  0  0  0  0  0  0  0  0  0
  1  6  1  0  0  0  0
  2  1  2  0  0  0  0
  2  3  1  0  0  0  0
  3  4  2  0  0  0  0
  4  5  1  0  0  0  0
  4  9  1  0  0  0  0
  5 10  1  0  0  0  0
  6 11  1  0  0  0  0
  6  5  2  0  0  0  0
  7  1  1  0  0  0  0
  8  2  1  0  0  0  0
 11 13  2  0  0  0  0
 12 11  2  0  0  0  0
 15 14  3  0  0  0  0
M  RAD  1   3   2
M  END
