Coordinates from ORCA-job p-NO2-Ph-N2+-B3LYPG-aug-cc-pVDZ-scan-d09-49-n400
 OpenBabel09291715233D

 15 14  0  0  0  0  0  0  0  0999 V2000
   -2.0945   -0.2124   -0.6250 C   0  0  0  0  0  0  0  0  0  0  0  0
   -0.6856   -0.2471   -0.7427 C   0  0  0  0  0  0  0  0  0  0  0  0
   -0.1787    0.8667   -0.1667 C   0  0  0  0  0  0  0  0  0  0  0  0
   -0.6001    1.9805    0.4744 C   0  0  0  0  0  0  0  0  0  0  0  0
   -2.0117    1.9460    0.5544 C   0  0  0  0  0  0  0  0  0  0  0  0
   -2.7112    0.8668    0.0108 C   0  0  0  0  0  0  0  0  0  0  0  0
   -2.6885   -1.0307   -1.0327 H   0  0  0  0  0  0  0  0  0  0  0  0
   -0.1378   -1.0532   -1.2237 H   0  0  0  0  0  0  0  0  0  0  0  0
    0.0094    2.7866    0.8743 H   0  0  0  0  0  0  0  0  0  0  0  0
   -2.5429    2.7644    1.0409 H   0  0  0  0  0  0  0  0  0  0  0  0
   -4.1998    0.8669    0.1152 N   0  0  0  0  0  0  0  0  0  0  0  0
   -4.7796   -0.0916   -0.3704 O   0  0  0  0  0  0  0  0  0  0  0  0
   -4.7060    1.8256    0.6769 O   0  0  0  0  0  0  0  0  0  0  0  0
    1.9192    0.8666   -0.3137 N   0  0  0  0  0  0  0  0  0  0  0  0
    3.0192    0.8665   -0.3908 N   0  0  0  0  0  0  0  0  0  0  0  0
  1  6  1  0  0  0  0
  2  1  2  0  0  0  0
  2  3  1  0  0  0  0
  3  4  2  0  0  0  0
  4  5  1  0  0  0  0
  4  9  1  0  0  0  0
  5 10  1  0  0  0  0
  6 11  1  0  0  0  0
  6  5  2  0  0  0  0
  7  1  1  0  0  0  0
  8  2  1  0  0  0  0
 11 13  2  0  0  0  0
 12 11  2  0  0  0  0
 15 14  3  0  0  0  0
M  RAD  1   3   2
M  END
