Coordinates from ORCA-job p-NO2-Ph-N2+-B3LYPG-aug-cc-pVDZ-scan-d09-49-n400
 OpenBabel09291715233D

 15 14  0  0  0  0  0  0  0  0999 V2000
   -2.2622   -0.2125   -0.6133 C   0  0  0  0  0  0  0  0  0  0  0  0
   -0.8393   -0.2574   -0.7378 C   0  0  0  0  0  0  0  0  0  0  0  0
   -0.4337    0.8667   -0.1490 C   0  0  0  0  0  0  0  0  0  0  0  0
   -0.7530    1.9908    0.4906 C   0  0  0  0  0  0  0  0  0  0  0  0
   -2.1793    1.9461    0.5661 C   0  0  0  0  0  0  0  0  0  0  0  0
   -2.8804    0.8668    0.0227 C   0  0  0  0  0  0  0  0  0  0  0  0
   -2.8456   -1.0386   -1.0259 H   0  0  0  0  0  0  0  0  0  0  0  0
   -0.2761   -1.0567   -1.2161 H   0  0  0  0  0  0  0  0  0  0  0  0
   -0.1284    2.7900    0.8856 H   0  0  0  0  0  0  0  0  0  0  0  0
   -2.6992    2.7722    1.0562 H   0  0  0  0  0  0  0  0  0  0  0  0
   -4.3671    0.8669    0.1270 N   0  0  0  0  0  0  0  0  0  0  0  0
   -4.9438   -0.0926   -0.3592 O   0  0  0  0  0  0  0  0  0  0  0  0
   -4.8700    1.8265    0.6891 O   0  0  0  0  0  0  0  0  0  0  0  0
    2.9942    0.8667   -0.3890 N   0  0  0  0  0  0  0  0  0  0  0  0
    4.0953    0.8666   -0.4659 N   0  0  0  0  0  0  0  0  0  0  0  0
  1  6  1  0  0  0  0
  2  1  2  0  0  0  0
  2  3  1  0  0  0  0
  3  4  2  0  0  0  0
  4  5  1  0  0  0  0
  4  9  1  0  0  0  0
  5 10  1  0  0  0  0
  6 11  1  0  0  0  0
  6  5  2  0  0  0  0
  7  1  1  0  0  0  0
  8  2  1  0  0  0  0
 11 13  2  0  0  0  0
 12 11  2  0  0  0  0
 15 14  3  0  0  0  0
M  RAD  1   3   2
M  END
