Coordinates from ORCA-job p-NO2-Ph-N2+-B3LYPG-aug-cc-pVDZ-scan-d09-49-n400
 OpenBabel09291715233D

 15 14  0  0  0  0  0  0  0  0999 V2000
   -2.4573   -0.2129   -0.5999 C   0  0  0  0  0  0  0  0  0  0  0  0
   -1.0338   -0.2591   -0.7253 C   0  0  0  0  0  0  0  0  0  0  0  0
   -0.6311    0.8653   -0.1362 C   0  0  0  0  0  0  0  0  0  0  0  0
   -0.9458    1.9902    0.5035 C   0  0  0  0  0  0  0  0  0  0  0  0
   -2.3728    1.9456    0.5793 C   0  0  0  0  0  0  0  0  0  0  0  0
   -3.0748    0.8667    0.0363 C   0  0  0  0  0  0  0  0  0  0  0  0
   -3.0405   -1.0393   -1.0127 H   0  0  0  0  0  0  0  0  0  0  0  0
   -0.4721   -1.0595   -1.2043 H   0  0  0  0  0  0  0  0  0  0  0  0
   -0.3215    2.7900    0.8988 H   0  0  0  0  0  0  0  0  0  0  0  0
   -2.8913    2.7726    1.0698 H   0  0  0  0  0  0  0  0  0  0  0  0
   -4.5615    0.8676    0.1412 N   0  0  0  0  0  0  0  0  0  0  0  0
   -5.1384   -0.0918   -0.3449 O   0  0  0  0  0  0  0  0  0  0  0  0
   -5.0633    1.8276    0.7035 O   0  0  0  0  0  0  0  0  0  0  0  0
    4.2571    0.8690   -0.4759 N   0  0  0  0  0  0  0  0  0  0  0  0
    5.3586    0.8695   -0.5522 N   0  0  0  0  0  0  0  0  0  0  0  0
  1  6  1  0  0  0  0
  2  1  2  0  0  0  0
  2  3  1  0  0  0  0
  3  4  2  0  0  0  0
  4  5  1  0  0  0  0
  4  9  1  0  0  0  0
  5 10  1  0  0  0  0
  6 11  1  0  0  0  0
  6  5  2  0  0  0  0
  7  1  1  0  0  0  0
  8  2  1  0  0  0  0
 11 13  2  0  0  0  0
 12 11  2  0  0  0  0
 15 14  3  0  0  0  0
M  RAD  1   3   2
M  END
