Coordinates from ORCA-job p-NO2-Ph-N2+-B3LYPG-aug-cc-pVDZ-scan-d09-49-n400
 OpenBabel09291715233D

 15 14  0  0  0  0  0  0  0  0999 V2000
   -2.1500   -0.2127   -0.6211 C   0  0  0  0  0  0  0  0  0  0  0  0
   -0.7310   -0.2542   -0.7435 C   0  0  0  0  0  0  0  0  0  0  0  0
   -0.2978    0.8667   -0.1584 C   0  0  0  0  0  0  0  0  0  0  0  0
   -0.6450    1.9876    0.4815 C   0  0  0  0  0  0  0  0  0  0  0  0
   -2.0671    1.9462    0.5585 C   0  0  0  0  0  0  0  0  0  0  0  0
   -2.7677    0.8667    0.0149 C   0  0  0  0  0  0  0  0  0  0  0  0
   -2.7369   -1.0362   -1.0321 H   0  0  0  0  0  0  0  0  0  0  0  0
   -0.1720   -1.0547   -1.2222 H   0  0  0  0  0  0  0  0  0  0  0  0
   -0.0246    2.7881    0.8774 H   0  0  0  0  0  0  0  0  0  0  0  0
   -2.5909    2.7697    1.0474 H   0  0  0  0  0  0  0  0  0  0  0  0
   -4.2547    0.8668    0.1193 N   0  0  0  0  0  0  0  0  0  0  0  0
   -4.8327   -0.0920   -0.3673 O   0  0  0  0  0  0  0  0  0  0  0  0
   -4.7590    1.8263    0.6807 O   0  0  0  0  0  0  0  0  0  0  0  0
    2.2701    0.8666   -0.3385 N   0  0  0  0  0  0  0  0  0  0  0  0
    3.3707    0.8666   -0.4156 N   0  0  0  0  0  0  0  0  0  0  0  0
  1  6  1  0  0  0  0
  2  1  2  0  0  0  0
  2  3  1  0  0  0  0
  3  4  2  0  0  0  0
  4  5  1  0  0  0  0
  4  9  1  0  0  0  0
  5 10  1  0  0  0  0
  6 11  1  0  0  0  0
  6  5  2  0  0  0  0
  7  1  1  0  0  0  0
  8  2  1  0  0  0  0
 11 13  2  0  0  0  0
 12 11  2  0  0  0  0
 15 14  3  0  0  0  0
M  RAD  1   3   2
M  END
