Coordinates from ORCA-job p-NO2-Ph-N2+-B3LYPG-aug-cc-pVDZ-scan-d09-49-n400
 OpenBabel09291715233D

 15 14  0  0  0  0  0  0  0  0999 V2000
   -2.0901   -0.2127   -0.6250 C   0  0  0  0  0  0  0  0  0  0  0  0
   -0.6825   -0.2461   -0.7423 C   0  0  0  0  0  0  0  0  0  0  0  0
   -0.1660    0.8667   -0.1676 C   0  0  0  0  0  0  0  0  0  0  0  0
   -0.5971    1.9794    0.4737 C   0  0  0  0  0  0  0  0  0  0  0  0
   -2.0073    1.9459    0.5544 C   0  0  0  0  0  0  0  0  0  0  0  0
   -2.7067    0.8666    0.0110 C   0  0  0  0  0  0  0  0  0  0  0  0
   -2.6852   -1.0302   -1.0320 H   0  0  0  0  0  0  0  0  0  0  0  0
   -0.1358   -1.0527   -1.2236 H   0  0  0  0  0  0  0  0  0  0  0  0
    0.0114    2.7861    0.8739 H   0  0  0  0  0  0  0  0  0  0  0  0
   -2.5396    2.7634    1.0407 H   0  0  0  0  0  0  0  0  0  0  0  0
   -4.1956    0.8665    0.1157 N   0  0  0  0  0  0  0  0  0  0  0  0
   -4.7756   -0.0910   -0.3718 O   0  0  0  0  0  0  0  0  0  0  0  0
   -4.7020    1.8261    0.6755 O   0  0  0  0  0  0  0  0  0  0  0  0
    1.8918    0.8667   -0.3121 N   0  0  0  0  0  0  0  0  0  0  0  0
    2.9918    0.8668   -0.3894 N   0  0  0  0  0  0  0  0  0  0  0  0
  1  6  1  0  0  0  0
  2  1  2  0  0  0  0
  2  3  1  0  0  0  0
  3  4  2  0  0  0  0
  4  5  1  0  0  0  0
  4  9  1  0  0  0  0
  5 10  1  0  0  0  0
  6 11  1  0  0  0  0
  6  5  2  0  0  0  0
  7  1  1  0  0  0  0
  8  2  1  0  0  0  0
 11 13  2  0  0  0  0
 12 11  2  0  0  0  0
 15 14  3  0  0  0  0
M  RAD  1   3   2
M  END
