Coordinates from ORCA-job p-NO2-Ph-N2+-B3LYPG-aug-cc-pVDZ-scan-d09-49-n400
 OpenBabel09291715233D

 15 15  0  0  0  0  0  0  0  0999 V2000
   -2.0664   -0.2128   -0.6274 C   0  0  0  0  0  0  0  0  0  0  0  0
   -0.6655   -0.2401   -0.7403 C   0  0  0  0  0  0  0  0  0  0  0  0
   -0.0961    0.8667   -0.1725 C   0  0  0  0  0  0  0  0  0  0  0  0
   -0.5806    1.9735    0.4692 C   0  0  0  0  0  0  0  0  0  0  0  0
   -1.9836    1.9466    0.5525 C   0  0  0  0  0  0  0  0  0  0  0  0
   -2.6823    0.8669    0.0086 C   0  0  0  0  0  0  0  0  0  0  0  0
   -2.6671   -1.0263   -1.0320 H   0  0  0  0  0  0  0  0  0  0  0  0
   -0.1247   -1.0502   -1.2229 H   0  0  0  0  0  0  0  0  0  0  0  0
    0.0223    2.7835    0.8717 H   0  0  0  0  0  0  0  0  0  0  0  0
   -2.5218    2.7602    1.0369 H   0  0  0  0  0  0  0  0  0  0  0  0
   -4.1728    0.8671    0.1130 N   0  0  0  0  0  0  0  0  0  0  0  0
   -4.7535   -0.0915   -0.3716 O   0  0  0  0  0  0  0  0  0  0  0  0
   -4.6799    1.8250    0.6753 O   0  0  0  0  0  0  0  0  0  0  0  0
    1.7417    0.8665   -0.3011 N   0  0  0  0  0  0  0  0  0  0  0  0
    2.8418    0.8664   -0.3781 N   0  0  0  0  0  0  0  0  0  0  0  0
  1  6  1  0  0  0  0
  2  1  2  0  0  0  0
  2  3  1  0  0  0  0
  3  4  2  0  0  0  0
  4  5  1  0  0  0  0
  4  9  1  0  0  0  0
  5 10  1  0  0  0  0
  6 11  1  0  0  0  0
  6  5  2  0  0  0  0
  7  1  1  0  0  0  0
  8  2  1  0  0  0  0
 11 13  2  0  0  0  0
 12 11  2  0  0  0  0
 14  3  1  0  0  0  0
 15 14  1  0  0  0  0
M  RAD  2  14   2  15   3
M  END
