Coordinates from ORCA-job p-NO2-Ph-N2+-B3LYPG-aug-cc-pVDZ-scan-d09-49-n400
 OpenBabel09291715233D

 15 15  0  0  0  0  0  0  0  0999 V2000
   -2.0144   -0.2142   -0.6309 C   0  0  0  0  0  0  0  0  0  0  0  0
   -0.6315   -0.2265   -0.7350 C   0  0  0  0  0  0  0  0  0  0  0  0
    0.0865    0.8667   -0.1853 C   0  0  0  0  0  0  0  0  0  0  0  0
   -0.5476    1.9598    0.4595 C   0  0  0  0  0  0  0  0  0  0  0  0
   -1.9315    1.9473    0.5501 C   0  0  0  0  0  0  0  0  0  0  0  0
   -2.6317    0.8665    0.0059 C   0  0  0  0  0  0  0  0  0  0  0  0
   -2.6206   -1.0239   -1.0328 H   0  0  0  0  0  0  0  0  0  0  0  0
   -0.1037   -1.0455   -1.2219 H   0  0  0  0  0  0  0  0  0  0  0  0
    0.0430    2.7789    0.8677 H   0  0  0  0  0  0  0  0  0  0  0  0
   -2.4755    2.7568    1.0329 H   0  0  0  0  0  0  0  0  0  0  0  0
   -4.1267    0.8663    0.1112 N   0  0  0  0  0  0  0  0  0  0  0  0
   -4.7053   -0.0909   -0.3774 O   0  0  0  0  0  0  0  0  0  0  0  0
   -4.6317    1.8268    0.6700 O   0  0  0  0  0  0  0  0  0  0  0  0
    1.3943    0.8668   -0.2773 N   0  0  0  0  0  0  0  0  0  0  0  0
    2.5081    0.8669   -0.3556 N   0  0  0  0  0  0  0  0  0  0  0  0
  1  6  1  0  0  0  0
  2  1  2  0  0  0  0
  2  3  1  0  0  0  0
  3  4  2  0  0  0  0
  4  5  1  0  0  0  0
  4  9  1  0  0  0  0
  5 10  1  0  0  0  0
  6 11  1  0  0  0  0
  6  5  2  0  0  0  0
  7  1  1  0  0  0  0
  8  2  1  0  0  0  0
 11 13  2  0  0  0  0
 12 11  2  0  0  0  0
 14  3  1  0  0  0  0
 15 14  1  0  0  0  0
M  RAD  2  14   2  15   3
M  END
