Coordinates from ORCA-job p-NO2-Ph-N2+-B3LYPG-aug-cc-pVDZ-scan-d09-49-n400
 OpenBabel09291715233D

 15 14  0  0  0  0  0  0  0  0999 V2000
   -2.1188   -0.2125   -0.6228 C   0  0  0  0  0  0  0  0  0  0  0  0
   -0.7050   -0.2509   -0.7433 C   0  0  0  0  0  0  0  0  0  0  0  0
   -0.2349    0.8667   -0.1627 C   0  0  0  0  0  0  0  0  0  0  0  0
   -0.6193    1.9842    0.4779 C   0  0  0  0  0  0  0  0  0  0  0  0
   -2.0360    1.9457    0.5564 C   0  0  0  0  0  0  0  0  0  0  0  0
   -2.7361    0.8665    0.0132 C   0  0  0  0  0  0  0  0  0  0  0  0
   -2.7086   -1.0339   -1.0323 H   0  0  0  0  0  0  0  0  0  0  0  0
   -0.1524   -1.0545   -1.2234 H   0  0  0  0  0  0  0  0  0  0  0  0
   -0.0050    2.7879    0.8760 H   0  0  0  0  0  0  0  0  0  0  0  0
   -2.5628    2.7670    1.0445 H   0  0  0  0  0  0  0  0  0  0  0  0
   -4.2238    0.8664    0.1179 N   0  0  0  0  0  0  0  0  0  0  0  0
   -4.8028   -0.0912   -0.3703 O   0  0  0  0  0  0  0  0  0  0  0  0
   -4.7292    1.8266    0.6773 O   0  0  0  0  0  0  0  0  0  0  0  0
    2.0730    0.8668   -0.3250 N   0  0  0  0  0  0  0  0  0  0  0  0
    3.1733    0.8669   -0.4023 N   0  0  0  0  0  0  0  0  0  0  0  0
  1  6  1  0  0  0  0
  2  1  2  0  0  0  0
  2  3  1  0  0  0  0
  3  4  2  0  0  0  0
  4  5  1  0  0  0  0
  4  9  1  0  0  0  0
  5 10  1  0  0  0  0
  6 11  1  0  0  0  0
  6  5  2  0  0  0  0
  7  1  1  0  0  0  0
  8  2  1  0  0  0  0
 11 13  2  0  0  0  0
 12 11  2  0  0  0  0
 15 14  3  0  0  0  0
M  RAD  1   3   2
M  END
