Coordinates from ORCA-job p-NO2-Ph-N2+-B3LYPG-aug-cc-pVDZ-scan-d09-49-n400
 OpenBabel09291715233D

 15 14  0  0  0  0  0  0  0  0999 V2000
   -2.1013   -0.2124   -0.6245 C   0  0  0  0  0  0  0  0  0  0  0  0
   -0.6908   -0.2483   -0.7431 C   0  0  0  0  0  0  0  0  0  0  0  0
   -0.1957    0.8667   -0.1655 C   0  0  0  0  0  0  0  0  0  0  0  0
   -0.6052    1.9818    0.4754 C   0  0  0  0  0  0  0  0  0  0  0  0
   -2.0185    1.9460    0.5548 C   0  0  0  0  0  0  0  0  0  0  0  0
   -2.7182    0.8668    0.0113 C   0  0  0  0  0  0  0  0  0  0  0  0
   -2.6939   -1.0316   -1.0328 H   0  0  0  0  0  0  0  0  0  0  0  0
   -0.1416   -1.0537   -1.2238 H   0  0  0  0  0  0  0  0  0  0  0  0
    0.0057    2.7871    0.8748 H   0  0  0  0  0  0  0  0  0  0  0  0
   -2.5483    2.7653    1.0418 H   0  0  0  0  0  0  0  0  0  0  0  0
   -4.2065    0.8669    0.1157 N   0  0  0  0  0  0  0  0  0  0  0  0
   -4.7860   -0.0917   -0.3700 O   0  0  0  0  0  0  0  0  0  0  0  0
   -4.7124    1.8256    0.6774 O   0  0  0  0  0  0  0  0  0  0  0  0
    1.9621    0.8666   -0.3168 N   0  0  0  0  0  0  0  0  0  0  0  0
    3.0622    0.8665   -0.3938 N   0  0  0  0  0  0  0  0  0  0  0  0
  1  6  1  0  0  0  0
  2  1  2  0  0  0  0
  2  3  1  0  0  0  0
  3  4  2  0  0  0  0
  4  5  1  0  0  0  0
  4  9  1  0  0  0  0
  5 10  1  0  0  0  0
  6 11  1  0  0  0  0
  6  5  2  0  0  0  0
  7  1  1  0  0  0  0
  8  2  1  0  0  0  0
 11 13  2  0  0  0  0
 12 11  2  0  0  0  0
 15 14  3  0  0  0  0
M  RAD  1   3   2
M  END
