Coordinates from ORCA-job p-NO2-Ph-N2+-B3LYPG-aug-cc-pVDZ-scan-d09-49-n400
 OpenBabel09291715233D

 15 14  0  0  0  0  0  0  0  0999 V2000
   -2.2223   -0.2127   -0.6162 C   0  0  0  0  0  0  0  0  0  0  0  0
   -0.7998   -0.2567   -0.7401 C   0  0  0  0  0  0  0  0  0  0  0  0
   -0.3925    0.8667   -0.1518 C   0  0  0  0  0  0  0  0  0  0  0  0
   -0.7135    1.9901    0.4875 C   0  0  0  0  0  0  0  0  0  0  0  0
   -2.1394    1.9463    0.5634 C   0  0  0  0  0  0  0  0  0  0  0  0
   -2.8405    0.8668    0.0199 C   0  0  0  0  0  0  0  0  0  0  0  0
   -2.8061   -1.0384   -1.0287 H   0  0  0  0  0  0  0  0  0  0  0  0
   -0.2360   -1.0554   -1.2182 H   0  0  0  0  0  0  0  0  0  0  0  0
   -0.0884    2.7887    0.8822 H   0  0  0  0  0  0  0  0  0  0  0  0
   -2.6599    2.7721    1.0533 H   0  0  0  0  0  0  0  0  0  0  0  0
   -4.3272    0.8669    0.1242 N   0  0  0  0  0  0  0  0  0  0  0  0
   -4.9040   -0.0926   -0.3619 O   0  0  0  0  0  0  0  0  0  0  0  0
   -4.8304    1.8264    0.6864 O   0  0  0  0  0  0  0  0  0  0  0  0
    2.7354    0.8666   -0.3709 N   0  0  0  0  0  0  0  0  0  0  0  0
    3.8363    0.8665   -0.4478 N   0  0  0  0  0  0  0  0  0  0  0  0
  1  6  1  0  0  0  0
  2  1  2  0  0  0  0
  2  3  1  0  0  0  0
  3  4  2  0  0  0  0
  4  5  1  0  0  0  0
  4  9  1  0  0  0  0
  5 10  1  0  0  0  0
  6 11  1  0  0  0  0
  6  5  2  0  0  0  0
  7  1  1  0  0  0  0
  8  2  1  0  0  0  0
 11 13  2  0  0  0  0
 12 11  2  0  0  0  0
 15 14  3  0  0  0  0
M  RAD  1   3   2
M  END
