Coordinates from ORCA-job p-NO2-Ph-N2+-B3LYPG-aug-cc-pVDZ-scan-d09-49-n400
 OpenBabel09291715233D

 15 15  0  0  0  0  0  0  0  0999 V2000
   -2.0715   -0.2128   -0.6268 C   0  0  0  0  0  0  0  0  0  0  0  0
   -0.6688   -0.2418   -0.7410 C   0  0  0  0  0  0  0  0  0  0  0  0
   -0.1138    0.8667   -0.1712 C   0  0  0  0  0  0  0  0  0  0  0  0
   -0.5838    1.9752    0.4703 C   0  0  0  0  0  0  0  0  0  0  0  0
   -1.9887    1.9464    0.5530 C   0  0  0  0  0  0  0  0  0  0  0  0
   -2.6875    0.8668    0.0092 C   0  0  0  0  0  0  0  0  0  0  0  0
   -2.6708   -1.0273   -1.0320 H   0  0  0  0  0  0  0  0  0  0  0  0
   -0.1265   -1.0509   -1.2232 H   0  0  0  0  0  0  0  0  0  0  0  0
    0.0206    2.7842    0.8722 H   0  0  0  0  0  0  0  0  0  0  0  0
   -2.5255    2.7609    1.0378 H   0  0  0  0  0  0  0  0  0  0  0  0
   -4.1776    0.8669    0.1137 N   0  0  0  0  0  0  0  0  0  0  0  0
   -4.7582   -0.0913   -0.3718 O   0  0  0  0  0  0  0  0  0  0  0  0
   -4.6846    1.8253    0.6752 O   0  0  0  0  0  0  0  0  0  0  0  0
    1.7741    0.8666   -0.3036 N   0  0  0  0  0  0  0  0  0  0  0  0
    2.8740    0.8665   -0.3806 N   0  0  0  0  0  0  0  0  0  0  0  0
  1  6  1  0  0  0  0
  2  1  2  0  0  0  0
  2  3  1  0  0  0  0
  3  4  2  0  0  0  0
  4  5  1  0  0  0  0
  4  9  1  0  0  0  0
  5 10  1  0  0  0  0
  6 11  1  0  0  0  0
  6  5  2  0  0  0  0
  7  1  1  0  0  0  0
  8  2  1  0  0  0  0
 11 13  2  0  0  0  0
 12 11  2  0  0  0  0
 14  3  1  0  0  0  0
 15 14  1  0  0  0  0
M  RAD  2  14   2  15   3
M  END
