Coordinates from ORCA-job p-NO2-Ph-N2+-B3LYPG-aug-cc-pVDZ-scan-d09-49-n400
 OpenBabel09291715233D

 15 14  0  0  0  0  0  0  0  0999 V2000
   -2.1538   -0.2128   -0.6208 C   0  0  0  0  0  0  0  0  0  0  0  0
   -0.7345   -0.2545   -0.7433 C   0  0  0  0  0  0  0  0  0  0  0  0
   -0.3035    0.8667   -0.1580 C   0  0  0  0  0  0  0  0  0  0  0  0
   -0.6485    1.9879    0.4819 C   0  0  0  0  0  0  0  0  0  0  0  0
   -2.0709    1.9461    0.5588 C   0  0  0  0  0  0  0  0  0  0  0  0
   -2.7715    0.8667    0.0153 C   0  0  0  0  0  0  0  0  0  0  0  0
   -2.7404   -1.0364   -1.0318 H   0  0  0  0  0  0  0  0  0  0  0  0
   -0.1751   -1.0548   -1.2221 H   0  0  0  0  0  0  0  0  0  0  0  0
   -0.0277    2.7882    0.8777 H   0  0  0  0  0  0  0  0  0  0  0  0
   -2.5944    2.7698    1.0478 H   0  0  0  0  0  0  0  0  0  0  0  0
   -4.2585    0.8667    0.1198 N   0  0  0  0  0  0  0  0  0  0  0  0
   -4.8364   -0.0919   -0.3673 O   0  0  0  0  0  0  0  0  0  0  0  0
   -4.7628    1.8265    0.6807 O   0  0  0  0  0  0  0  0  0  0  0  0
    2.2944    0.8667   -0.3403 N   0  0  0  0  0  0  0  0  0  0  0  0
    3.3950    0.8667   -0.4174 N   0  0  0  0  0  0  0  0  0  0  0  0
  1  6  1  0  0  0  0
  2  1  2  0  0  0  0
  2  3  1  0  0  0  0
  3  4  2  0  0  0  0
  4  5  1  0  0  0  0
  4  9  1  0  0  0  0
  5 10  1  0  0  0  0
  6 11  1  0  0  0  0
  6  5  2  0  0  0  0
  7  1  1  0  0  0  0
  8  2  1  0  0  0  0
 11 13  2  0  0  0  0
 12 11  2  0  0  0  0
 15 14  3  0  0  0  0
M  RAD  1   3   2
M  END
