Coordinates from ORCA-job p-NO2-Ph-N2+-B3LYPG-aug-cc-pVDZ-scan-d09-49-n400
 OpenBabel09291715233D

 15 15  0  0  0  0  0  0  0  0999 V2000
   -2.0220   -0.2139   -0.6310 C   0  0  0  0  0  0  0  0  0  0  0  0
   -0.6364   -0.2276   -0.7355 C   0  0  0  0  0  0  0  0  0  0  0  0
    0.0597    0.8666   -0.1834 C   0  0  0  0  0  0  0  0  0  0  0  0
   -0.5524    1.9610    0.4604 C   0  0  0  0  0  0  0  0  0  0  0  0
   -1.9390    1.9476    0.5500 C   0  0  0  0  0  0  0  0  0  0  0  0
   -2.6386    0.8669    0.0056 C   0  0  0  0  0  0  0  0  0  0  0  0
   -2.6284   -1.0232   -1.0329 H   0  0  0  0  0  0  0  0  0  0  0  0
   -0.1077   -1.0459   -1.2218 H   0  0  0  0  0  0  0  0  0  0  0  0
    0.0390    2.7792    0.8682 H   0  0  0  0  0  0  0  0  0  0  0  0
   -2.4834    2.7570    1.0325 H   0  0  0  0  0  0  0  0  0  0  0  0
   -4.1331    0.8671    0.1103 N   0  0  0  0  0  0  0  0  0  0  0  0
   -4.7123   -0.0917   -0.3749 O   0  0  0  0  0  0  0  0  0  0  0  0
   -4.6387    1.8255    0.6723 O   0  0  0  0  0  0  0  0  0  0  0  0
    1.4475    0.8665   -0.2805 N   0  0  0  0  0  0  0  0  0  0  0  0
    2.5573    0.8664   -0.3582 N   0  0  0  0  0  0  0  0  0  0  0  0
  1  6  1  0  0  0  0
  2  1  2  0  0  0  0
  2  3  1  0  0  0  0
  3  4  2  0  0  0  0
  4  5  1  0  0  0  0
  4  9  1  0  0  0  0
  5 10  1  0  0  0  0
  6 11  1  0  0  0  0
  6  5  2  0  0  0  0
  7  1  1  0  0  0  0
  8  2  1  0  0  0  0
 11 13  2  0  0  0  0
 12 11  2  0  0  0  0
 14  3  1  0  0  0  0
 15 14  1  0  0  0  0
M  RAD  2  14   2  15   3
M  END
