Coordinates from ORCA-job p-NO2-Ph-N2+-B3LYPG-aug-cc-pVDZ-scan-d09-49-n400
 OpenBabel09291715233D

 15 14  0  0  0  0  0  0  0  0999 V2000
   -2.2923   -0.2129   -0.6111 C   0  0  0  0  0  0  0  0  0  0  0  0
   -0.8687   -0.2577   -0.7357 C   0  0  0  0  0  0  0  0  0  0  0  0
   -0.4689    0.8666   -0.1465 C   0  0  0  0  0  0  0  0  0  0  0  0
   -0.7822    1.9909    0.4928 C   0  0  0  0  0  0  0  0  0  0  0  0
   -2.2093    1.9462    0.5686 C   0  0  0  0  0  0  0  0  0  0  0  0
   -2.9105    0.8666    0.0251 C   0  0  0  0  0  0  0  0  0  0  0  0
   -2.8757   -1.0391   -1.0238 H   0  0  0  0  0  0  0  0  0  0  0  0
   -0.3040   -1.0563   -1.2139 H   0  0  0  0  0  0  0  0  0  0  0  0
   -0.1562    2.7893    0.8873 H   0  0  0  0  0  0  0  0  0  0  0  0
   -2.7291    2.7724    1.0588 H   0  0  0  0  0  0  0  0  0  0  0  0
   -4.3971    0.8667    0.1297 N   0  0  0  0  0  0  0  0  0  0  0  0
   -4.9738   -0.0921   -0.3580 O   0  0  0  0  0  0  0  0  0  0  0  0
   -4.9000    1.8271    0.6904 O   0  0  0  0  0  0  0  0  0  0  0  0
    3.1890    0.8669   -0.4028 N   0  0  0  0  0  0  0  0  0  0  0  0
    4.2902    0.8670   -0.4798 N   0  0  0  0  0  0  0  0  0  0  0  0
  1  6  1  0  0  0  0
  2  1  2  0  0  0  0
  2  3  1  0  0  0  0
  3  4  2  0  0  0  0
  4  5  1  0  0  0  0
  4  9  1  0  0  0  0
  5 10  1  0  0  0  0
  6 11  1  0  0  0  0
  6  5  2  0  0  0  0
  7  1  1  0  0  0  0
  8  2  1  0  0  0  0
 11 13  2  0  0  0  0
 12 11  2  0  0  0  0
 15 14  3  0  0  0  0
M  RAD  1   3   2
M  END
