Coordinates from ORCA-job p-NO2-Ph-N2+-B3LYPG-aug-cc-pVDZ-scan-d09-49-n400
 OpenBabel09291715233D

 15 15  0  0  0  0  0  0  0  0999 V2000
   -1.9848   -0.2138   -0.6335 C   0  0  0  0  0  0  0  0  0  0  0  0
   -0.6153   -0.2309   -0.7391 C   0  0  0  0  0  0  0  0  0  0  0  0
    0.2136    0.8680   -0.1966 C   0  0  0  0  0  0  0  0  0  0  0  0
   -0.5311    1.9649    0.4599 C   0  0  0  0  0  0  0  0  0  0  0  0
   -1.9019    1.9478    0.5469 C   0  0  0  0  0  0  0  0  0  0  0  0
   -2.6067    0.8671    0.0030 C   0  0  0  0  0  0  0  0  0  0  0  0
   -2.5898   -1.0257   -1.0360 H   0  0  0  0  0  0  0  0  0  0  0  0
   -0.0740   -1.0451   -1.2229 H   0  0  0  0  0  0  0  0  0  0  0  0
    0.0725    2.7784    0.8647 H   0  0  0  0  0  0  0  0  0  0  0  0
   -2.4447    2.7590    1.0311 H   0  0  0  0  0  0  0  0  0  0  0  0
   -4.1010    0.8669    0.1083 N   0  0  0  0  0  0  0  0  0  0  0  0
   -4.6759   -0.0921   -0.3804 O   0  0  0  0  0  0  0  0  0  0  0  0
   -4.6019    1.8254    0.6735 O   0  0  0  0  0  0  0  0  0  0  0  0
    1.1515    0.8667   -0.2601 N   0  0  0  0  0  0  0  0  0  0  0  0
    2.3010    0.8650   -0.3376 N   0  0  0  0  0  0  0  0  0  0  0  0
  1  6  1  0  0  0  0
  2  1  2  0  0  0  0
  2  3  1  0  0  0  0
  3  4  2  0  0  0  0
  4  5  1  0  0  0  0
  4  9  1  0  0  0  0
  5 10  1  0  0  0  0
  6 11  1  0  0  0  0
  6  5  2  0  0  0  0
  7  1  1  0  0  0  0
  8  2  1  0  0  0  0
 11 13  2  0  0  0  0
 12 11  2  0  0  0  0
 14  3  1  0  0  0  0
 15 14  1  0  0  0  0
M  RAD  2  14   2  15   3
M  END
