Coordinates from ORCA-job p-NO2-Ph-N2+-B3LYPG-aug-cc-pVDZ-scan-d09-49-n400
 OpenBabel09291715233D

 15 14  0  0  0  0  0  0  0  0999 V2000
   -2.3351   -0.2127   -0.6085 C   0  0  0  0  0  0  0  0  0  0  0  0
   -0.9114   -0.2577   -0.7330 C   0  0  0  0  0  0  0  0  0  0  0  0
   -0.5116    0.8665   -0.1438 C   0  0  0  0  0  0  0  0  0  0  0  0
   -0.8248    1.9908    0.4955 C   0  0  0  0  0  0  0  0  0  0  0  0
   -2.2519    1.9462    0.5711 C   0  0  0  0  0  0  0  0  0  0  0  0
   -2.9533    0.8669    0.0277 C   0  0  0  0  0  0  0  0  0  0  0  0
   -2.9180   -1.0391   -1.0213 H   0  0  0  0  0  0  0  0  0  0  0  0
   -0.3474   -1.0568   -1.2113 H   0  0  0  0  0  0  0  0  0  0  0  0
   -0.1992    2.7897    0.8903 H   0  0  0  0  0  0  0  0  0  0  0  0
   -2.7711    2.7728    1.0614 H   0  0  0  0  0  0  0  0  0  0  0  0
   -4.4400    0.8671    0.1321 N   0  0  0  0  0  0  0  0  0  0  0  0
   -5.0164   -0.0927   -0.3537 O   0  0  0  0  0  0  0  0  0  0  0  0
   -4.9424    1.8266    0.6947 O   0  0  0  0  0  0  0  0  0  0  0  0
    3.4664    0.8670   -0.4217 N   0  0  0  0  0  0  0  0  0  0  0  0
    4.5677    0.8671   -0.4984 N   0  0  0  0  0  0  0  0  0  0  0  0
  1  6  1  0  0  0  0
  2  1  2  0  0  0  0
  2  3  1  0  0  0  0
  3  4  2  0  0  0  0
  4  5  1  0  0  0  0
  4  9  1  0  0  0  0
  5 10  1  0  0  0  0
  6 11  1  0  0  0  0
  6  5  2  0  0  0  0
  7  1  1  0  0  0  0
  8  2  1  0  0  0  0
 11 13  2  0  0  0  0
 12 11  2  0  0  0  0
 15 14  3  0  0  0  0
M  RAD  1   3   2
M  END
