Coordinates from ORCA-job p-NO2-Ph-N2+-B3LYPG-aug-cc-pVDZ-scan-d09-49-n400
 OpenBabel09291715233D

 15 15  0  0  0  0  0  0  0  0999 V2000
   -1.9859   -0.2138   -0.6333 C   0  0  0  0  0  0  0  0  0  0  0  0
   -0.6154   -0.2301   -0.7383 C   0  0  0  0  0  0  0  0  0  0  0  0
    0.2058    0.8672   -0.1947 C   0  0  0  0  0  0  0  0  0  0  0  0
   -0.5312    1.9637    0.4598 C   0  0  0  0  0  0  0  0  0  0  0  0
   -1.9030    1.9475    0.5472 C   0  0  0  0  0  0  0  0  0  0  0  0
   -2.6074    0.8669    0.0034 C   0  0  0  0  0  0  0  0  0  0  0  0
   -2.5908   -1.0254   -1.0361 H   0  0  0  0  0  0  0  0  0  0  0  0
   -0.0764   -1.0452   -1.2231 H   0  0  0  0  0  0  0  0  0  0  0  0
    0.0702    2.7785    0.8652 H   0  0  0  0  0  0  0  0  0  0  0  0
   -2.4456    2.7589    1.0310 H   0  0  0  0  0  0  0  0  0  0  0  0
   -4.1020    0.8669    0.1084 N   0  0  0  0  0  0  0  0  0  0  0  0
   -4.6770   -0.0923   -0.3798 O   0  0  0  0  0  0  0  0  0  0  0  0
   -4.6032    1.8261    0.6721 O   0  0  0  0  0  0  0  0  0  0  0  0
    1.1636    0.8666   -0.2608 N   0  0  0  0  0  0  0  0  0  0  0  0
    2.3097    0.8658   -0.3398 N   0  0  0  0  0  0  0  0  0  0  0  0
  1  6  1  0  0  0  0
  2  1  2  0  0  0  0
  2  3  1  0  0  0  0
  3  4  2  0  0  0  0
  4  5  1  0  0  0  0
  4  9  1  0  0  0  0
  5 10  1  0  0  0  0
  6 11  1  0  0  0  0
  6  5  2  0  0  0  0
  7  1  1  0  0  0  0
  8  2  1  0  0  0  0
 11 13  2  0  0  0  0
 12 11  2  0  0  0  0
 14  3  1  0  0  0  0
 15 14  1  0  0  0  0
M  RAD  2  14   2  15   3
M  END
