Coordinates from ORCA-job p-NO2-Ph-N2+-B3LYPG-aug-cc-pVDZ-scan-d09-49-n400
 OpenBabel09291715233D

 15 14  0  0  0  0  0  0  0  0999 V2000
   -2.1475   -0.2119   -0.6229 C   0  0  0  0  0  0  0  0  0  0  0  0
   -0.7287   -0.2537   -0.7441 C   0  0  0  0  0  0  0  0  0  0  0  0
   -0.2942    0.8668   -0.1589 C   0  0  0  0  0  0  0  0  0  0  0  0
   -0.6427    1.9878    0.4806 C   0  0  0  0  0  0  0  0  0  0  0  0
   -2.0647    1.9471    0.5568 C   0  0  0  0  0  0  0  0  0  0  0  0
   -2.7653    0.8679    0.0127 C   0  0  0  0  0  0  0  0  0  0  0  0
   -2.7347   -1.0350   -1.0342 H   0  0  0  0  0  0  0  0  0  0  0  0
   -0.1697   -1.0545   -1.2224 H   0  0  0  0  0  0  0  0  0  0  0  0
   -0.0223    2.7880    0.8771 H   0  0  0  0  0  0  0  0  0  0  0  0
   -2.5887    2.7707    1.0452 H   0  0  0  0  0  0  0  0  0  0  0  0
   -4.2524    0.8686    0.1157 N   0  0  0  0  0  0  0  0  0  0  0  0
   -4.8297   -0.0949   -0.3623 O   0  0  0  0  0  0  0  0  0  0  0  0
   -4.7561    1.8234    0.6857 O   0  0  0  0  0  0  0  0  0  0  0  0
    2.2538    0.8658   -0.3358 N   0  0  0  0  0  0  0  0  0  0  0  0
    3.3545    0.8653   -0.4121 N   0  0  0  0  0  0  0  0  0  0  0  0
  1  6  1  0  0  0  0
  2  1  2  0  0  0  0
  2  3  1  0  0  0  0
  3  4  2  0  0  0  0
  4  5  1  0  0  0  0
  4  9  1  0  0  0  0
  5 10  1  0  0  0  0
  6 11  1  0  0  0  0
  6  5  2  0  0  0  0
  7  1  1  0  0  0  0
  8  2  1  0  0  0  0
 11 13  2  0  0  0  0
 12 11  2  0  0  0  0
 15 14  3  0  0  0  0
M  RAD  1   3   2
M  END
