Coordinates from ORCA-job p-NO2-Ph-N2+-B3LYPG-aug-cc-pVDZ-scan-d09-49-n400
 OpenBabel09291715233D

 15 14  0  0  0  0  0  0  0  0999 V2000
   -2.3474   -0.2126   -0.6074 C   0  0  0  0  0  0  0  0  0  0  0  0
   -0.9240   -0.2580   -0.7323 C   0  0  0  0  0  0  0  0  0  0  0  0
   -0.5213    0.8664   -0.1431 C   0  0  0  0  0  0  0  0  0  0  0  0
   -0.8373    1.9909    0.4965 C   0  0  0  0  0  0  0  0  0  0  0  0
   -2.2642    1.9459    0.5719 C   0  0  0  0  0  0  0  0  0  0  0  0
   -2.9655    0.8668    0.0286 C   0  0  0  0  0  0  0  0  0  0  0  0
   -2.9304   -1.0390   -1.0202 H   0  0  0  0  0  0  0  0  0  0  0  0
   -0.3614   -1.0579   -1.2109 H   0  0  0  0  0  0  0  0  0  0  0  0
   -0.2129    2.7906    0.8917 H   0  0  0  0  0  0  0  0  0  0  0  0
   -2.7834    2.7725    1.0623 H   0  0  0  0  0  0  0  0  0  0  0  0
   -4.4522    0.8670    0.1332 N   0  0  0  0  0  0  0  0  0  0  0  0
   -5.0287   -0.0925   -0.3532 O   0  0  0  0  0  0  0  0  0  0  0  0
   -4.9547    1.8268    0.6953 O   0  0  0  0  0  0  0  0  0  0  0  0
    3.5467    0.8672   -0.4273 N   0  0  0  0  0  0  0  0  0  0  0  0
    4.6481    0.8673   -0.5040 N   0  0  0  0  0  0  0  0  0  0  0  0
  1  6  1  0  0  0  0
  2  1  2  0  0  0  0
  2  3  1  0  0  0  0
  3  4  2  0  0  0  0
  4  5  1  0  0  0  0
  4  9  1  0  0  0  0
  5 10  1  0  0  0  0
  6 11  1  0  0  0  0
  6  5  2  0  0  0  0
  7  1  1  0  0  0  0
  8  2  1  0  0  0  0
 11 13  2  0  0  0  0
 12 11  2  0  0  0  0
 15 14  3  0  0  0  0
M  RAD  1   3   2
M  END
