Coordinates from ORCA-job p-NO2-Ph-N2+-B3LYPG-aug-cc-pVDZ-scan-d09-49-n400
 OpenBabel09291715233D

 15 15  0  0  0  0  0  0  0  0999 V2000
   -2.0080   -0.2139   -0.6320 C   0  0  0  0  0  0  0  0  0  0  0  0
   -0.6272   -0.2260   -0.7352 C   0  0  0  0  0  0  0  0  0  0  0  0
    0.1093    0.8666   -0.1868 C   0  0  0  0  0  0  0  0  0  0  0  0
   -0.5434    1.9594    0.4589 C   0  0  0  0  0  0  0  0  0  0  0  0
   -1.9251    1.9476    0.5490 C   0  0  0  0  0  0  0  0  0  0  0  0
   -2.6259    0.8669    0.0047 C   0  0  0  0  0  0  0  0  0  0  0  0
   -2.6138   -1.0238   -1.0343 H   0  0  0  0  0  0  0  0  0  0  0  0
   -0.0996   -1.0455   -1.2221 H   0  0  0  0  0  0  0  0  0  0  0  0
    0.0471    2.7788    0.8675 H   0  0  0  0  0  0  0  0  0  0  0  0
   -2.4687    2.7576    1.0318 H   0  0  0  0  0  0  0  0  0  0  0  0
   -4.1213    0.8671    0.1094 N   0  0  0  0  0  0  0  0  0  0  0  0
   -4.6989   -0.0922   -0.3761 O   0  0  0  0  0  0  0  0  0  0  0  0
   -4.6253    1.8260    0.6715 O   0  0  0  0  0  0  0  0  0  0  0  0
    1.3472    0.8665   -0.2735 N   0  0  0  0  0  0  0  0  0  0  0  0
    2.4652    0.8664   -0.3518 N   0  0  0  0  0  0  0  0  0  0  0  0
  1  6  1  0  0  0  0
  2  1  2  0  0  0  0
  2  3  1  0  0  0  0
  3  4  2  0  0  0  0
  4  5  1  0  0  0  0
  4  9  1  0  0  0  0
  5 10  1  0  0  0  0
  6 11  1  0  0  0  0
  6  5  2  0  0  0  0
  7  1  1  0  0  0  0
  8  2  1  0  0  0  0
 11 13  2  0  0  0  0
 12 11  2  0  0  0  0
 14  3  1  0  0  0  0
 15 14  1  0  0  0  0
M  RAD  2  14   2  15   3
M  END
