Coordinates from ORCA-job p-NO2-Ph-N2+-B3LYPG-aug-cc-pVDZ-scan-d09-49-n400
 OpenBabel09291715233D

 15 14  0  0  0  0  0  0  0  0999 V2000
   -2.2738   -0.2127   -0.6127 C   0  0  0  0  0  0  0  0  0  0  0  0
   -0.8505   -0.2573   -0.7370 C   0  0  0  0  0  0  0  0  0  0  0  0
   -0.4487    0.8667   -0.1480 C   0  0  0  0  0  0  0  0  0  0  0  0
   -0.7641    1.9907    0.4913 C   0  0  0  0  0  0  0  0  0  0  0  0
   -2.1909    1.9463    0.5670 C   0  0  0  0  0  0  0  0  0  0  0  0
   -2.8921    0.8669    0.0234 C   0  0  0  0  0  0  0  0  0  0  0  0
   -2.8571   -1.0389   -1.0254 H   0  0  0  0  0  0  0  0  0  0  0  0
   -0.2862   -1.0560   -1.2151 H   0  0  0  0  0  0  0  0  0  0  0  0
   -0.1384    2.7893    0.8859 H   0  0  0  0  0  0  0  0  0  0  0  0
   -2.7106    2.7726    1.0571 H   0  0  0  0  0  0  0  0  0  0  0  0
   -4.3788    0.8670    0.1278 N   0  0  0  0  0  0  0  0  0  0  0  0
   -4.9553   -0.0927   -0.3582 O   0  0  0  0  0  0  0  0  0  0  0  0
   -4.8816    1.8264    0.6902 O   0  0  0  0  0  0  0  0  0  0  0  0
    3.0693    0.8667   -0.3942 N   0  0  0  0  0  0  0  0  0  0  0  0
    4.1704    0.8666   -0.4710 N   0  0  0  0  0  0  0  0  0  0  0  0
  1  6  1  0  0  0  0
  2  1  2  0  0  0  0
  2  3  1  0  0  0  0
  3  4  2  0  0  0  0
  4  5  1  0  0  0  0
  4  9  1  0  0  0  0
  5 10  1  0  0  0  0
  6 11  1  0  0  0  0
  6  5  2  0  0  0  0
  7  1  1  0  0  0  0
  8  2  1  0  0  0  0
 11 13  2  0  0  0  0
 12 11  2  0  0  0  0
 15 14  3  0  0  0  0
M  RAD  1   3   2
M  END
