Coordinates from ORCA-job p-NO2-Ph-N2+-B3LYPG-aug-cc-pVDZ-scan-d09-49-n400
 OpenBabel09291715233D

 15 14  0  0  0  0  0  0  0  0999 V2000
   -2.2394   -0.2124   -0.6159 C   0  0  0  0  0  0  0  0  0  0  0  0
   -0.8161   -0.2568   -0.7395 C   0  0  0  0  0  0  0  0  0  0  0  0
   -0.4132    0.8668   -0.1506 C   0  0  0  0  0  0  0  0  0  0  0  0
   -0.7298    1.9906    0.4885 C   0  0  0  0  0  0  0  0  0  0  0  0
   -2.1564    1.9469    0.5639 C   0  0  0  0  0  0  0  0  0  0  0  0
   -2.8576    0.8674    0.0200 C   0  0  0  0  0  0  0  0  0  0  0  0
   -2.8230   -1.0382   -1.0286 H   0  0  0  0  0  0  0  0  0  0  0  0
   -0.2513   -1.0552   -1.2172 H   0  0  0  0  0  0  0  0  0  0  0  0
   -0.1037    2.7887    0.8830 H   0  0  0  0  0  0  0  0  0  0  0  0
   -2.6767    2.7729    1.0537 H   0  0  0  0  0  0  0  0  0  0  0  0
   -4.3442    0.8678    0.1237 N   0  0  0  0  0  0  0  0  0  0  0  0
   -4.9206   -0.0941   -0.3581 O   0  0  0  0  0  0  0  0  0  0  0  0
   -4.8469    1.8249    0.6903 O   0  0  0  0  0  0  0  0  0  0  0  0
    2.8448    0.8662   -0.3777 N   0  0  0  0  0  0  0  0  0  0  0  0
    3.9458    0.8659   -0.4543 N   0  0  0  0  0  0  0  0  0  0  0  0
  1  6  1  0  0  0  0
  2  1  2  0  0  0  0
  2  3  1  0  0  0  0
  3  4  2  0  0  0  0
  4  5  1  0  0  0  0
  4  9  1  0  0  0  0
  5 10  1  0  0  0  0
  6 11  1  0  0  0  0
  6  5  2  0  0  0  0
  7  1  1  0  0  0  0
  8  2  1  0  0  0  0
 11 13  2  0  0  0  0
 12 11  2  0  0  0  0
 15 14  3  0  0  0  0
M  RAD  1   3   2
M  END
