Coordinates from ORCA-job p-NO2-Ph-N2+-B3LYPG-aug-cc-pVDZ-scan-d09-49-n400
 OpenBabel09291715233D

 15 14  0  0  0  0  0  0  0  0999 V2000
   -2.2130   -0.2127   -0.6170 C   0  0  0  0  0  0  0  0  0  0  0  0
   -0.7905   -0.2566   -0.7408 C   0  0  0  0  0  0  0  0  0  0  0  0
   -0.3830    0.8667   -0.1525 C   0  0  0  0  0  0  0  0  0  0  0  0
   -0.7043    1.9901    0.4868 C   0  0  0  0  0  0  0  0  0  0  0  0
   -2.1302    1.9464    0.5627 C   0  0  0  0  0  0  0  0  0  0  0  0
   -2.8312    0.8669    0.0191 C   0  0  0  0  0  0  0  0  0  0  0  0
   -2.7972   -1.0382   -1.0293 H   0  0  0  0  0  0  0  0  0  0  0  0
   -0.2265   -1.0551   -1.2187 H   0  0  0  0  0  0  0  0  0  0  0  0
   -0.0790    2.7885    0.8814 H   0  0  0  0  0  0  0  0  0  0  0  0
   -2.6510    2.7720    1.0525 H   0  0  0  0  0  0  0  0  0  0  0  0
   -4.3178    0.8670    0.1233 N   0  0  0  0  0  0  0  0  0  0  0  0
   -4.8947   -0.0927   -0.3623 O   0  0  0  0  0  0  0  0  0  0  0  0
   -4.8210    1.8262    0.6860 O   0  0  0  0  0  0  0  0  0  0  0  0
    2.6750    0.8665   -0.3666 N   0  0  0  0  0  0  0  0  0  0  0  0
    3.7759    0.8664   -0.4435 N   0  0  0  0  0  0  0  0  0  0  0  0
  1  6  1  0  0  0  0
  2  1  2  0  0  0  0
  2  3  1  0  0  0  0
  3  4  2  0  0  0  0
  4  5  1  0  0  0  0
  4  9  1  0  0  0  0
  5 10  1  0  0  0  0
  6 11  1  0  0  0  0
  6  5  2  0  0  0  0
  7  1  1  0  0  0  0
  8  2  1  0  0  0  0
 11 13  2  0  0  0  0
 12 11  2  0  0  0  0
 15 14  3  0  0  0  0
M  RAD  1   3   2
M  END
