Coordinates from ORCA-job p-NO2-Ph-N2+-B3LYPG-aug-cc-pVDZ-scan-d09-49-n400
 OpenBabel09291715233D

 15 14  0  0  0  0  0  0  0  0999 V2000
   -2.3061   -0.2125   -0.6102 C   0  0  0  0  0  0  0  0  0  0  0  0
   -0.8829   -0.2577   -0.7349 C   0  0  0  0  0  0  0  0  0  0  0  0
   -0.4792    0.8666   -0.1459 C   0  0  0  0  0  0  0  0  0  0  0  0
   -0.7963    1.9909    0.4937 C   0  0  0  0  0  0  0  0  0  0  0  0
   -2.2230    1.9460    0.5691 C   0  0  0  0  0  0  0  0  0  0  0  0
   -2.9242    0.8668    0.0258 C   0  0  0  0  0  0  0  0  0  0  0  0
   -2.8891   -1.0388   -1.0230 H   0  0  0  0  0  0  0  0  0  0  0  0
   -0.3199   -1.0573   -1.2135 H   0  0  0  0  0  0  0  0  0  0  0  0
   -0.1718    2.7904    0.8888 H   0  0  0  0  0  0  0  0  0  0  0  0
   -2.7425    2.7724    1.0593 H   0  0  0  0  0  0  0  0  0  0  0  0
   -4.4110    0.8670    0.1302 N   0  0  0  0  0  0  0  0  0  0  0  0
   -4.9875   -0.0926   -0.3561 O   0  0  0  0  0  0  0  0  0  0  0  0
   -4.9137    1.8266    0.6923 O   0  0  0  0  0  0  0  0  0  0  0  0
    3.2788    0.8669   -0.4088 N   0  0  0  0  0  0  0  0  0  0  0  0
    4.3800    0.8669   -0.4856 N   0  0  0  0  0  0  0  0  0  0  0  0
  1  6  1  0  0  0  0
  2  1  2  0  0  0  0
  2  3  1  0  0  0  0
  3  4  2  0  0  0  0
  4  5  1  0  0  0  0
  4  9  1  0  0  0  0
  5 10  1  0  0  0  0
  6 11  1  0  0  0  0
  6  5  2  0  0  0  0
  7  1  1  0  0  0  0
  8  2  1  0  0  0  0
 11 13  2  0  0  0  0
 12 11  2  0  0  0  0
 15 14  3  0  0  0  0
M  RAD  1   3   2
M  END
