Coordinates from ORCA-job p-NO2-Ph-N2+-B3LYPG-aug-cc-pVDZ-scan-d09-49-n400
 OpenBabel09291715233D

 15 15  0  0  0  0  0  0  0  0999 V2000
   -2.0452   -0.2135   -0.6291 C   0  0  0  0  0  0  0  0  0  0  0  0
   -0.6517   -0.2334   -0.7376 C   0  0  0  0  0  0  0  0  0  0  0  0
   -0.0228    0.8667   -0.1776 C   0  0  0  0  0  0  0  0  0  0  0  0
   -0.5673    1.9668    0.4646 C   0  0  0  0  0  0  0  0  0  0  0  0
   -1.9623    1.9472    0.5514 C   0  0  0  0  0  0  0  0  0  0  0  0
   -2.6609    0.8669    0.0072 C   0  0  0  0  0  0  0  0  0  0  0  0
   -2.6502   -1.0238   -1.0317 H   0  0  0  0  0  0  0  0  0  0  0  0
   -0.1170   -1.0474   -1.2220 H   0  0  0  0  0  0  0  0  0  0  0  0
    0.0299    2.7807    0.8697 H   0  0  0  0  0  0  0  0  0  0  0  0
   -2.5052    2.7576    1.0344 H   0  0  0  0  0  0  0  0  0  0  0  0
   -4.1534    0.8670    0.1118 N   0  0  0  0  0  0  0  0  0  0  0  0
   -4.7341   -0.0913   -0.3733 O   0  0  0  0  0  0  0  0  0  0  0  0
   -4.6605    1.8251    0.6736 O   0  0  0  0  0  0  0  0  0  0  0  0
    1.6050    0.8665   -0.2916 N   0  0  0  0  0  0  0  0  0  0  0  0
    2.7072    0.8664   -0.3688 N   0  0  0  0  0  0  0  0  0  0  0  0
  1  6  1  0  0  0  0
  2  1  2  0  0  0  0
  2  3  1  0  0  0  0
  3  4  2  0  0  0  0
  4  5  1  0  0  0  0
  4  9  1  0  0  0  0
  5 10  1  0  0  0  0
  6 11  1  0  0  0  0
  6  5  2  0  0  0  0
  7  1  1  0  0  0  0
  8  2  1  0  0  0  0
 11 13  2  0  0  0  0
 12 11  2  0  0  0  0
 14  3  1  0  0  0  0
 15 14  1  0  0  0  0
M  RAD  2  14   2  15   3
M  END
