Coordinates from ORCA-job p-NO2-Ph-N2+-B3LYPG-aug-cc-pVDZ-scan-d09-49-n400
 OpenBabel09291715233D

 15 14  0  0  0  0  0  0  0  0999 V2000
   -2.2026   -0.2125   -0.6180 C   0  0  0  0  0  0  0  0  0  0  0  0
   -0.7805   -0.2563   -0.7414 C   0  0  0  0  0  0  0  0  0  0  0  0
   -0.3699    0.8668   -0.1535 C   0  0  0  0  0  0  0  0  0  0  0  0
   -0.6943    1.9899    0.4859 C   0  0  0  0  0  0  0  0  0  0  0  0
   -2.1198    1.9465    0.5616 C   0  0  0  0  0  0  0  0  0  0  0  0
   -2.8208    0.8671    0.0180 C   0  0  0  0  0  0  0  0  0  0  0  0
   -2.7870   -1.0377   -1.0303 H   0  0  0  0  0  0  0  0  0  0  0  0
   -0.2173   -1.0551   -1.2194 H   0  0  0  0  0  0  0  0  0  0  0  0
   -0.0698    2.7886    0.8807 H   0  0  0  0  0  0  0  0  0  0  0  0
   -2.6408    2.7720    1.0513 H   0  0  0  0  0  0  0  0  0  0  0  0
   -4.3075    0.8674    0.1219 N   0  0  0  0  0  0  0  0  0  0  0  0
   -4.8844   -0.0933   -0.3620 O   0  0  0  0  0  0  0  0  0  0  0  0
   -4.8107    1.8256    0.6863 O   0  0  0  0  0  0  0  0  0  0  0  0
    2.6080    0.8663   -0.3616 N   0  0  0  0  0  0  0  0  0  0  0  0
    3.7089    0.8662   -0.4384 N   0  0  0  0  0  0  0  0  0  0  0  0
  1  6  1  0  0  0  0
  2  1  2  0  0  0  0
  2  3  1  0  0  0  0
  3  4  2  0  0  0  0
  4  5  1  0  0  0  0
  4  9  1  0  0  0  0
  5 10  1  0  0  0  0
  6 11  1  0  0  0  0
  6  5  2  0  0  0  0
  7  1  1  0  0  0  0
  8  2  1  0  0  0  0
 11 13  2  0  0  0  0
 12 11  2  0  0  0  0
 15 14  3  0  0  0  0
M  RAD  1   3   2
M  END
