Coordinates from ORCA-job p-NO2-Ph-N2+-B3LYPG-aug-cc-pVDZ-scan-d09-49-n400
 OpenBabel09291715233D

 15 15  0  0  0  0  0  0  0  0999 V2000
   -1.9959   -0.2138   -0.6327 C   0  0  0  0  0  0  0  0  0  0  0  0
   -0.6197   -0.2264   -0.7360 C   0  0  0  0  0  0  0  0  0  0  0  0
    0.1556    0.8667   -0.1901 C   0  0  0  0  0  0  0  0  0  0  0  0
   -0.5358    1.9598    0.4585 C   0  0  0  0  0  0  0  0  0  0  0  0
   -1.9130    1.9474    0.5481 C   0  0  0  0  0  0  0  0  0  0  0  0
   -2.6154    0.8669    0.0041 C   0  0  0  0  0  0  0  0  0  0  0  0
   -2.6008   -1.0246   -1.0355 H   0  0  0  0  0  0  0  0  0  0  0  0
   -0.0896   -1.0452   -1.2227 H   0  0  0  0  0  0  0  0  0  0  0  0
    0.0571    2.7785    0.8665 H   0  0  0  0  0  0  0  0  0  0  0  0
   -2.4557    2.7583    1.0314 H   0  0  0  0  0  0  0  0  0  0  0  0
   -4.1108    0.8669    0.1089 N   0  0  0  0  0  0  0  0  0  0  0  0
   -4.6870   -0.0925   -0.3775 O   0  0  0  0  0  0  0  0  0  0  0  0
   -4.6134    1.8265    0.6709 O   0  0  0  0  0  0  0  0  0  0  0  0
    1.2534    0.8665   -0.2670 N   0  0  0  0  0  0  0  0  0  0  0  0
    2.3825    0.8664   -0.3460 N   0  0  0  0  0  0  0  0  0  0  0  0
  1  6  1  0  0  0  0
  2  1  2  0  0  0  0
  2  3  1  0  0  0  0
  3  4  2  0  0  0  0
  4  5  1  0  0  0  0
  4  9  1  0  0  0  0
  5 10  1  0  0  0  0
  6 11  1  0  0  0  0
  6  5  2  0  0  0  0
  7  1  1  0  0  0  0
  8  2  1  0  0  0  0
 11 13  2  0  0  0  0
 12 11  2  0  0  0  0
 14  3  1  0  0  0  0
 15 14  1  0  0  0  0
M  RAD  2  14   2  15   3
M  END
