Coordinates from ORCA-job p-NO2-Ph-N2+-B3LYPG-aug-cc-pVDZ-scan-d09-49-n400
 OpenBabel09291715233D

 15 15  0  0  0  0  0  0  0  0999 V2000
   -2.0572   -0.2131   -0.6281 C   0  0  0  0  0  0  0  0  0  0  0  0
   -0.6595   -0.2372   -0.7391 C   0  0  0  0  0  0  0  0  0  0  0  0
   -0.0649    0.8667   -0.1747 C   0  0  0  0  0  0  0  0  0  0  0  0
   -0.5748    1.9706    0.4672 C   0  0  0  0  0  0  0  0  0  0  0  0
   -1.9744    1.9468    0.5521 C   0  0  0  0  0  0  0  0  0  0  0  0
   -2.6729    0.8669    0.0081 C   0  0  0  0  0  0  0  0  0  0  0  0
   -2.6600   -1.0251   -1.0317 H   0  0  0  0  0  0  0  0  0  0  0  0
   -0.1213   -1.0489   -1.2225 H   0  0  0  0  0  0  0  0  0  0  0  0
    0.0257    2.7822    0.8707 H   0  0  0  0  0  0  0  0  0  0  0  0
   -2.5149    2.7588    1.0358 H   0  0  0  0  0  0  0  0  0  0  0  0
   -4.1643    0.8670    0.1125 N   0  0  0  0  0  0  0  0  0  0  0  0
   -4.7451   -0.0913   -0.3725 O   0  0  0  0  0  0  0  0  0  0  0  0
   -4.6716    1.8250    0.6744 O   0  0  0  0  0  0  0  0  0  0  0  0
    1.6830    0.8665   -0.2971 N   0  0  0  0  0  0  0  0  0  0  0  0
    2.7836    0.8664   -0.3742 N   0  0  0  0  0  0  0  0  0  0  0  0
  1  6  1  0  0  0  0
  2  1  2  0  0  0  0
  2  3  1  0  0  0  0
  3  4  2  0  0  0  0
  4  5  1  0  0  0  0
  4  9  1  0  0  0  0
  5 10  1  0  0  0  0
  6 11  1  0  0  0  0
  6  5  2  0  0  0  0
  7  1  1  0  0  0  0
  8  2  1  0  0  0  0
 11 13  2  0  0  0  0
 12 11  2  0  0  0  0
 14  3  1  0  0  0  0
 15 14  1  0  0  0  0
M  RAD  2  14   2  15   3
M  END
