Coordinates from ORCA-job p-NO2-Ph-N2+-B3LYPG-aug-cc-pVDZ-scan-d09-49-n400
 OpenBabel09291715233D

 15 15  0  0  0  0  0  0  0  0999 V2000
   -2.0737   -0.2135   -0.6253 C   0  0  0  0  0  0  0  0  0  0  0  0
   -0.6707   -0.2423   -0.7406 C   0  0  0  0  0  0  0  0  0  0  0  0
   -0.1190    0.8667   -0.1708 C   0  0  0  0  0  0  0  0  0  0  0  0
   -0.5856    1.9753    0.4710 C   0  0  0  0  0  0  0  0  0  0  0  0
   -1.9909    1.9456    0.5544 C   0  0  0  0  0  0  0  0  0  0  0  0
   -2.6898    0.8658    0.0112 C   0  0  0  0  0  0  0  0  0  0  0  0
   -2.6726   -1.0285   -1.0303 H   0  0  0  0  0  0  0  0  0  0  0  0
   -0.1280   -1.0510   -1.2232 H   0  0  0  0  0  0  0  0  0  0  0  0
    0.0191    2.7844    0.8724 H   0  0  0  0  0  0  0  0  0  0  0  0
   -2.5273    2.7602    1.0398 H   0  0  0  0  0  0  0  0  0  0  0  0
   -4.1796    0.8653    0.1168 N   0  0  0  0  0  0  0  0  0  0  0  0
   -4.7606   -0.0890   -0.3759 O   0  0  0  0  0  0  0  0  0  0  0  0
   -4.6871    1.8276    0.6711 O   0  0  0  0  0  0  0  0  0  0  0  0
    1.7887    0.8672   -0.3058 N   0  0  0  0  0  0  0  0  0  0  0  0
    2.8886    0.8676   -0.3836 N   0  0  0  0  0  0  0  0  0  0  0  0
  1  6  1  0  0  0  0
  2  1  2  0  0  0  0
  2  3  1  0  0  0  0
  3  4  2  0  0  0  0
  4  5  1  0  0  0  0
  4  9  1  0  0  0  0
  5 10  1  0  0  0  0
  6 11  1  0  0  0  0
  6  5  2  0  0  0  0
  7  1  1  0  0  0  0
  8  2  1  0  0  0  0
 11 13  2  0  0  0  0
 12 11  2  0  0  0  0
 14  3  1  0  0  0  0
 15 14  1  0  0  0  0
M  RAD  2  14   2  15   3
M  END
