Coordinates from ORCA-job p-NO2-Ph-N2+-B3LYPG-aug-cc-pVDZ-scan-d09-49-n400
 OpenBabel09291715233D

 15 15  0  0  0  0  0  0  0  0999 V2000
   -2.0201   -0.2143   -0.6305 C   0  0  0  0  0  0  0  0  0  0  0  0
   -0.6353   -0.2273   -0.7352 C   0  0  0  0  0  0  0  0  0  0  0  0
    0.0667    0.8667   -0.1839 C   0  0  0  0  0  0  0  0  0  0  0  0
   -0.5513    1.9605    0.4602 C   0  0  0  0  0  0  0  0  0  0  0  0
   -1.9372    1.9473    0.5505 C   0  0  0  0  0  0  0  0  0  0  0  0
   -2.6369    0.8665    0.0063 C   0  0  0  0  0  0  0  0  0  0  0  0
   -2.6264   -1.0237   -1.0323 H   0  0  0  0  0  0  0  0  0  0  0  0
   -0.1068   -1.0457   -1.2218 H   0  0  0  0  0  0  0  0  0  0  0  0
    0.0399    2.7790    0.8680 H   0  0  0  0  0  0  0  0  0  0  0  0
   -2.4814    2.7566    1.0332 H   0  0  0  0  0  0  0  0  0  0  0  0
   -4.1315    0.8663    0.1116 N   0  0  0  0  0  0  0  0  0  0  0  0
   -4.7107   -0.0908   -0.3770 O   0  0  0  0  0  0  0  0  0  0  0  0
   -4.6371    1.8266    0.6703 O   0  0  0  0  0  0  0  0  0  0  0  0
    1.4345    0.8668   -0.2801 N   0  0  0  0  0  0  0  0  0  0  0  0
    2.5451    0.8669   -0.3583 N   0  0  0  0  0  0  0  0  0  0  0  0
  1  6  1  0  0  0  0
  2  1  2  0  0  0  0
  2  3  1  0  0  0  0
  3  4  2  0  0  0  0
  4  5  1  0  0  0  0
  4  9  1  0  0  0  0
  5 10  1  0  0  0  0
  6 11  1  0  0  0  0
  6  5  2  0  0  0  0
  7  1  1  0  0  0  0
  8  2  1  0  0  0  0
 11 13  2  0  0  0  0
 12 11  2  0  0  0  0
 14  3  1  0  0  0  0
 15 14  1  0  0  0  0
M  RAD  2  14   2  15   3
M  END
