Coordinates from ORCA-job p-NO2-Ph-N2+-B3LYPG-aug-cc-pVDZ-scan-d09-49-n400
 OpenBabel09291715233D

 15 14  0  0  0  0  0  0  0  0999 V2000
   -2.4546   -0.2129   -0.6001 C   0  0  0  0  0  0  0  0  0  0  0  0
   -1.0311   -0.2590   -0.7255 C   0  0  0  0  0  0  0  0  0  0  0  0
   -0.6284    0.8654   -0.1364 C   0  0  0  0  0  0  0  0  0  0  0  0
   -0.9431    1.9902    0.5034 C   0  0  0  0  0  0  0  0  0  0  0  0
   -2.3702    1.9456    0.5791 C   0  0  0  0  0  0  0  0  0  0  0  0
   -3.0721    0.8667    0.0361 C   0  0  0  0  0  0  0  0  0  0  0  0
   -3.0378   -1.0392   -1.0129 H   0  0  0  0  0  0  0  0  0  0  0  0
   -0.4694   -1.0595   -1.2045 H   0  0  0  0  0  0  0  0  0  0  0  0
   -0.3189    2.7900    0.8987 H   0  0  0  0  0  0  0  0  0  0  0  0
   -2.8887    2.7726    1.0697 H   0  0  0  0  0  0  0  0  0  0  0  0
   -4.5589    0.8676    0.1410 N   0  0  0  0  0  0  0  0  0  0  0  0
   -5.1357   -0.0918   -0.3451 O   0  0  0  0  0  0  0  0  0  0  0  0
   -5.0606    1.8276    0.7033 O   0  0  0  0  0  0  0  0  0  0  0  0
    4.2398    0.8689   -0.4747 N   0  0  0  0  0  0  0  0  0  0  0  0
    5.3413    0.8694   -0.5510 N   0  0  0  0  0  0  0  0  0  0  0  0
  1  6  1  0  0  0  0
  2  1  2  0  0  0  0
  2  3  1  0  0  0  0
  3  4  2  0  0  0  0
  4  5  1  0  0  0  0
  4  9  1  0  0  0  0
  5 10  1  0  0  0  0
  6 11  1  0  0  0  0
  6  5  2  0  0  0  0
  7  1  1  0  0  0  0
  8  2  1  0  0  0  0
 11 13  2  0  0  0  0
 12 11  2  0  0  0  0
 15 14  3  0  0  0  0
M  RAD  1   3   2
M  END
