Coordinates from ORCA-job p-NO2-Ph-N2+-B3LYPG-aug-cc-pVDZ-scan-d09-49-n400
 OpenBabel09291715233D

 15 14  0  0  0  0  0  0  0  0999 V2000
   -2.4305   -0.2128   -0.6017 C   0  0  0  0  0  0  0  0  0  0  0  0
   -1.0070   -0.2588   -0.7270 C   0  0  0  0  0  0  0  0  0  0  0  0
   -0.6044    0.8657   -0.1379 C   0  0  0  0  0  0  0  0  0  0  0  0
   -0.9193    1.9904    0.5019 C   0  0  0  0  0  0  0  0  0  0  0  0
   -2.3463    1.9457    0.5775 C   0  0  0  0  0  0  0  0  0  0  0  0
   -3.0481    0.8667    0.0344 C   0  0  0  0  0  0  0  0  0  0  0  0
   -3.0135   -1.0392   -1.0145 H   0  0  0  0  0  0  0  0  0  0  0  0
   -0.4450   -1.0591   -1.2059 H   0  0  0  0  0  0  0  0  0  0  0  0
   -0.2951    2.7902    0.8972 H   0  0  0  0  0  0  0  0  0  0  0  0
   -2.8650    2.7726    1.0680 H   0  0  0  0  0  0  0  0  0  0  0  0
   -4.5349    0.8674    0.1392 N   0  0  0  0  0  0  0  0  0  0  0  0
   -5.1116   -0.0920   -0.3470 O   0  0  0  0  0  0  0  0  0  0  0  0
   -5.0368    1.8274    0.7014 O   0  0  0  0  0  0  0  0  0  0  0  0
    4.0838    0.8685   -0.4641 N   0  0  0  0  0  0  0  0  0  0  0  0
    5.1853    0.8688   -0.5405 N   0  0  0  0  0  0  0  0  0  0  0  0
  1  6  1  0  0  0  0
  2  1  2  0  0  0  0
  2  3  1  0  0  0  0
  3  4  2  0  0  0  0
  4  5  1  0  0  0  0
  4  9  1  0  0  0  0
  5 10  1  0  0  0  0
  6 11  1  0  0  0  0
  6  5  2  0  0  0  0
  7  1  1  0  0  0  0
  8  2  1  0  0  0  0
 11 13  2  0  0  0  0
 12 11  2  0  0  0  0
 15 14  3  0  0  0  0
M  RAD  1   3   2
M  END
