Coordinates from ORCA-job p-NO2-Ph-N2+-B3LYPG-aug-cc-pVDZ-scan-d09-49-n400
 OpenBabel09291715233D

 15 14  0  0  0  0  0  0  0  0999 V2000
   -2.2169   -0.2133   -0.6159 C   0  0  0  0  0  0  0  0  0  0  0  0
   -0.7942   -0.2568   -0.7401 C   0  0  0  0  0  0  0  0  0  0  0  0
   -0.3878    0.8666   -0.1520 C   0  0  0  0  0  0  0  0  0  0  0  0
   -0.7080    1.9899    0.4874 C   0  0  0  0  0  0  0  0  0  0  0  0
   -2.1340    1.9460    0.5639 C   0  0  0  0  0  0  0  0  0  0  0  0
   -2.8350    0.8663    0.0205 C   0  0  0  0  0  0  0  0  0  0  0  0
   -2.8009   -1.0389   -1.0281 H   0  0  0  0  0  0  0  0  0  0  0  0
   -0.2300   -1.0551   -1.2183 H   0  0  0  0  0  0  0  0  0  0  0  0
   -0.0825    2.7883    0.8817 H   0  0  0  0  0  0  0  0  0  0  0  0
   -2.6546    2.7716    1.0539 H   0  0  0  0  0  0  0  0  0  0  0  0
   -4.3216    0.8660    0.1254 N   0  0  0  0  0  0  0  0  0  0  0  0
   -4.8988   -0.0911   -0.3650 O   0  0  0  0  0  0  0  0  0  0  0  0
   -4.8251    1.8278    0.6833 O   0  0  0  0  0  0  0  0  0  0  0  0
    2.7000    0.8670   -0.3692 N   0  0  0  0  0  0  0  0  0  0  0  0
    3.8009    0.8672   -0.4465 N   0  0  0  0  0  0  0  0  0  0  0  0
  1  6  1  0  0  0  0
  2  1  2  0  0  0  0
  2  3  1  0  0  0  0
  3  4  2  0  0  0  0
  4  5  1  0  0  0  0
  4  9  1  0  0  0  0
  5 10  1  0  0  0  0
  6 11  1  0  0  0  0
  6  5  2  0  0  0  0
  7  1  1  0  0  0  0
  8  2  1  0  0  0  0
 11 13  2  0  0  0  0
 12 11  2  0  0  0  0
 15 14  3  0  0  0  0
M  RAD  1   3   2
M  END
