Coordinates from ORCA-job p-NO2-Ph-N2+-B3LYPG-aug-cc-pVDZ-scan-d09-49-n400
 OpenBabel09291715233D

 15 14  0  0  0  0  0  0  0  0999 V2000
   -2.1224   -0.2126   -0.6224 C   0  0  0  0  0  0  0  0  0  0  0  0
   -0.7080   -0.2513   -0.7433 C   0  0  0  0  0  0  0  0  0  0  0  0
   -0.2420    0.8667   -0.1622 C   0  0  0  0  0  0  0  0  0  0  0  0
   -0.6223    1.9846    0.4784 C   0  0  0  0  0  0  0  0  0  0  0  0
   -2.0396    1.9456    0.5568 C   0  0  0  0  0  0  0  0  0  0  0  0
   -2.7398    0.8664    0.0136 C   0  0  0  0  0  0  0  0  0  0  0  0
   -2.7117   -1.0343   -1.0321 H   0  0  0  0  0  0  0  0  0  0  0  0
   -0.1548   -1.0547   -1.2233 H   0  0  0  0  0  0  0  0  0  0  0  0
   -0.0074    2.7880    0.8763 H   0  0  0  0  0  0  0  0  0  0  0  0
   -2.5659    2.7672    1.0450 H   0  0  0  0  0  0  0  0  0  0  0  0
   -4.2274    0.8662    0.1184 N   0  0  0  0  0  0  0  0  0  0  0  0
   -4.8063   -0.0910   -0.3705 O   0  0  0  0  0  0  0  0  0  0  0  0
   -4.7327    1.8269    0.6772 O   0  0  0  0  0  0  0  0  0  0  0  0
    2.0958    0.8669   -0.3267 N   0  0  0  0  0  0  0  0  0  0  0  0
    3.1961    0.8670   -0.4041 N   0  0  0  0  0  0  0  0  0  0  0  0
  1  6  1  0  0  0  0
  2  1  2  0  0  0  0
  2  3  1  0  0  0  0
  3  4  2  0  0  0  0
  4  5  1  0  0  0  0
  4  9  1  0  0  0  0
  5 10  1  0  0  0  0
  6 11  1  0  0  0  0
  6  5  2  0  0  0  0
  7  1  1  0  0  0  0
  8  2  1  0  0  0  0
 11 13  2  0  0  0  0
 12 11  2  0  0  0  0
 15 14  3  0  0  0  0
M  RAD  1   3   2
M  END
