Coordinates from ORCA-job p-NO2-Ph-N2+-B3LYPG-aug-cc-pVDZ-scan-d09-49-n400
 OpenBabel09291715233D

 15 14  0  0  0  0  0  0  0  0999 V2000
   -2.4197   -0.2127   -0.6024 C   0  0  0  0  0  0  0  0  0  0  0  0
   -0.9962   -0.2587   -0.7276 C   0  0  0  0  0  0  0  0  0  0  0  0
   -0.5937    0.8658   -0.1385 C   0  0  0  0  0  0  0  0  0  0  0  0
   -0.9087    1.9905    0.5012 C   0  0  0  0  0  0  0  0  0  0  0  0
   -2.3358    1.9457    0.5768 C   0  0  0  0  0  0  0  0  0  0  0  0
   -3.0374    0.8668    0.0337 C   0  0  0  0  0  0  0  0  0  0  0  0
   -3.0028   -1.0392   -1.0153 H   0  0  0  0  0  0  0  0  0  0  0  0
   -0.4342   -1.0589   -1.2065 H   0  0  0  0  0  0  0  0  0  0  0  0
   -0.2845    2.7903    0.8965 H   0  0  0  0  0  0  0  0  0  0  0  0
   -2.8545    2.7726    1.0673 H   0  0  0  0  0  0  0  0  0  0  0  0
   -4.5242    0.8674    0.1385 N   0  0  0  0  0  0  0  0  0  0  0  0
   -5.1009   -0.0921   -0.3478 O   0  0  0  0  0  0  0  0  0  0  0  0
   -5.0262    1.8273    0.7006 O   0  0  0  0  0  0  0  0  0  0  0  0
    4.0145    0.8682   -0.4594 N   0  0  0  0  0  0  0  0  0  0  0  0
    5.1160    0.8686   -0.5358 N   0  0  0  0  0  0  0  0  0  0  0  0
  1  6  1  0  0  0  0
  2  1  2  0  0  0  0
  2  3  1  0  0  0  0
  3  4  2  0  0  0  0
  4  5  1  0  0  0  0
  4  9  1  0  0  0  0
  5 10  1  0  0  0  0
  6 11  1  0  0  0  0
  6  5  2  0  0  0  0
  7  1  1  0  0  0  0
  8  2  1  0  0  0  0
 11 13  2  0  0  0  0
 12 11  2  0  0  0  0
 15 14  3  0  0  0  0
M  RAD  1   3   2
M  END
