Coordinates from ORCA-job p-NO2-Ph-N2+-B3LYPG-aug-cc-pVDZ-scan-d09-49-n400
 OpenBabel09291715233D

 15 14  0  0  0  0  0  0  0  0999 V2000
   -2.3394   -0.2126   -0.6079 C   0  0  0  0  0  0  0  0  0  0  0  0
   -0.9160   -0.2580   -0.7328 C   0  0  0  0  0  0  0  0  0  0  0  0
   -0.5132    0.8664   -0.1437 C   0  0  0  0  0  0  0  0  0  0  0  0
   -0.8293    1.9909    0.4960 C   0  0  0  0  0  0  0  0  0  0  0  0
   -2.2562    1.9459    0.5714 C   0  0  0  0  0  0  0  0  0  0  0  0
   -2.9575    0.8668    0.0281 C   0  0  0  0  0  0  0  0  0  0  0  0
   -2.9224   -1.0390   -1.0208 H   0  0  0  0  0  0  0  0  0  0  0  0
   -0.3533   -1.0578   -1.2114 H   0  0  0  0  0  0  0  0  0  0  0  0
   -0.2050    2.7906    0.8912 H   0  0  0  0  0  0  0  0  0  0  0  0
   -2.7755    2.7725    1.0617 H   0  0  0  0  0  0  0  0  0  0  0  0
   -4.4442    0.8670    0.1326 N   0  0  0  0  0  0  0  0  0  0  0  0
   -5.0207   -0.0925   -0.3538 O   0  0  0  0  0  0  0  0  0  0  0  0
   -4.9467    1.8268    0.6947 O   0  0  0  0  0  0  0  0  0  0  0  0
    3.4948    0.8671   -0.4238 N   0  0  0  0  0  0  0  0  0  0  0  0
    4.5962    0.8672   -0.5005 N   0  0  0  0  0  0  0  0  0  0  0  0
  1  6  1  0  0  0  0
  2  1  2  0  0  0  0
  2  3  1  0  0  0  0
  3  4  2  0  0  0  0
  4  5  1  0  0  0  0
  4  9  1  0  0  0  0
  5 10  1  0  0  0  0
  6 11  1  0  0  0  0
  6  5  2  0  0  0  0
  7  1  1  0  0  0  0
  8  2  1  0  0  0  0
 11 13  2  0  0  0  0
 12 11  2  0  0  0  0
 15 14  3  0  0  0  0
M  RAD  1   3   2
M  END
