Coordinates from ORCA-job p-NO2-Ph-N2+-B3LYPG-aug-cc-pVDZ-scan-d09-49-n400
 OpenBabel09291715233D

 15 15  0  0  0  0  0  0  0  0999 V2000
   -2.0089   -0.2142   -0.6312 C   0  0  0  0  0  0  0  0  0  0  0  0
   -0.6279   -0.2260   -0.7350 C   0  0  0  0  0  0  0  0  0  0  0  0
    0.1063    0.8667   -0.1867 C   0  0  0  0  0  0  0  0  0  0  0  0
   -0.5441    1.9593    0.4590 C   0  0  0  0  0  0  0  0  0  0  0  0
   -1.9260    1.9472    0.5497 C   0  0  0  0  0  0  0  0  0  0  0  0
   -2.6268    0.8664    0.0057 C   0  0  0  0  0  0  0  0  0  0  0  0
   -2.6147   -1.0242   -1.0333 H   0  0  0  0  0  0  0  0  0  0  0  0
   -0.1003   -1.0454   -1.2221 H   0  0  0  0  0  0  0  0  0  0  0  0
    0.0464    2.7787    0.8674 H   0  0  0  0  0  0  0  0  0  0  0  0
   -2.4696    2.7571    1.0327 H   0  0  0  0  0  0  0  0  0  0  0  0
   -4.1220    0.8662    0.1110 N   0  0  0  0  0  0  0  0  0  0  0  0
   -4.7000   -0.0911   -0.3780 O   0  0  0  0  0  0  0  0  0  0  0  0
   -4.6264    1.8271    0.6696 O   0  0  0  0  0  0  0  0  0  0  0  0
    1.3541    0.8668   -0.2745 N   0  0  0  0  0  0  0  0  0  0  0  0
    2.4715    0.8669   -0.3532 N   0  0  0  0  0  0  0  0  0  0  0  0
  1  6  1  0  0  0  0
  2  1  2  0  0  0  0
  2  3  1  0  0  0  0
  3  4  2  0  0  0  0
  4  5  1  0  0  0  0
  4  9  1  0  0  0  0
  5 10  1  0  0  0  0
  6 11  1  0  0  0  0
  6  5  2  0  0  0  0
  7  1  1  0  0  0  0
  8  2  1  0  0  0  0
 11 13  2  0  0  0  0
 12 11  2  0  0  0  0
 14  3  1  0  0  0  0
 15 14  1  0  0  0  0
M  RAD  2  14   2  15   3
M  END
