Coordinates from ORCA-job p-NO2-Ph-N2+-B3LYPG-aug-cc-pVDZ-scan-d09-49-n400
 OpenBabel09291715233D

 15 15  0  0  0  0  0  0  0  0999 V2000
   -2.0652   -0.2129   -0.6273 C   0  0  0  0  0  0  0  0  0  0  0  0
   -0.6645   -0.2400   -0.7403 C   0  0  0  0  0  0  0  0  0  0  0  0
   -0.0937    0.8667   -0.1727 C   0  0  0  0  0  0  0  0  0  0  0  0
   -0.5796    1.9734    0.4690 C   0  0  0  0  0  0  0  0  0  0  0  0
   -1.9824    1.9465    0.5526 C   0  0  0  0  0  0  0  0  0  0  0  0
   -2.6811    0.8668    0.0087 C   0  0  0  0  0  0  0  0  0  0  0  0
   -2.6660   -1.0263   -1.0318 H   0  0  0  0  0  0  0  0  0  0  0  0
   -0.1239   -1.0501   -1.2230 H   0  0  0  0  0  0  0  0  0  0  0  0
    0.0232    2.7834    0.8716 H   0  0  0  0  0  0  0  0  0  0  0  0
   -2.5208    2.7600    1.0369 H   0  0  0  0  0  0  0  0  0  0  0  0
   -4.1717    0.8669    0.1132 N   0  0  0  0  0  0  0  0  0  0  0  0
   -4.7524   -0.0912   -0.3722 O   0  0  0  0  0  0  0  0  0  0  0  0
   -4.6789    1.8252    0.6748 O   0  0  0  0  0  0  0  0  0  0  0  0
    1.7342    0.8666   -0.3007 N   0  0  0  0  0  0  0  0  0  0  0  0
    2.8343    0.8665   -0.3778 N   0  0  0  0  0  0  0  0  0  0  0  0
  1  6  1  0  0  0  0
  2  1  2  0  0  0  0
  2  3  1  0  0  0  0
  3  4  2  0  0  0  0
  4  5  1  0  0  0  0
  4  9  1  0  0  0  0
  5 10  1  0  0  0  0
  6 11  1  0  0  0  0
  6  5  2  0  0  0  0
  7  1  1  0  0  0  0
  8  2  1  0  0  0  0
 11 13  2  0  0  0  0
 12 11  2  0  0  0  0
 14  3  1  0  0  0  0
 15 14  1  0  0  0  0
M  RAD  2  14   2  15   3
M  END
