Coordinates from ORCA-job p-NO2-Ph-N2+-B3LYPG-aug-cc-pVDZ-scan-d09-49-n400
 OpenBabel09291715233D

 15 14  0  0  0  0  0  0  0  0999 V2000
   -2.4385   -0.2128   -0.6012 C   0  0  0  0  0  0  0  0  0  0  0  0
   -1.0150   -0.2589   -0.7265 C   0  0  0  0  0  0  0  0  0  0  0  0
   -0.6124    0.8656   -0.1374 C   0  0  0  0  0  0  0  0  0  0  0  0
   -0.9273    1.9903    0.5024 C   0  0  0  0  0  0  0  0  0  0  0  0
   -2.3543    1.9456    0.5781 C   0  0  0  0  0  0  0  0  0  0  0  0
   -3.0561    0.8667    0.0350 C   0  0  0  0  0  0  0  0  0  0  0  0
   -3.0216   -1.0392   -1.0140 H   0  0  0  0  0  0  0  0  0  0  0  0
   -0.4532   -1.0592   -1.2054 H   0  0  0  0  0  0  0  0  0  0  0  0
   -0.3030    2.7901    0.8977 H   0  0  0  0  0  0  0  0  0  0  0  0
   -2.8729    2.7726    1.0686 H   0  0  0  0  0  0  0  0  0  0  0  0
   -4.5429    0.8675    0.1399 N   0  0  0  0  0  0  0  0  0  0  0  0
   -5.1196   -0.0919   -0.3464 O   0  0  0  0  0  0  0  0  0  0  0  0
   -5.0447    1.8274    0.7021 O   0  0  0  0  0  0  0  0  0  0  0  0
    4.1358    0.8686   -0.4676 N   0  0  0  0  0  0  0  0  0  0  0  0
    5.2373    0.8690   -0.5440 N   0  0  0  0  0  0  0  0  0  0  0  0
  1  6  1  0  0  0  0
  2  1  2  0  0  0  0
  2  3  1  0  0  0  0
  3  4  2  0  0  0  0
  4  5  1  0  0  0  0
  4  9  1  0  0  0  0
  5 10  1  0  0  0  0
  6 11  1  0  0  0  0
  6  5  2  0  0  0  0
  7  1  1  0  0  0  0
  8  2  1  0  0  0  0
 11 13  2  0  0  0  0
 12 11  2  0  0  0  0
 15 14  3  0  0  0  0
M  RAD  1   3   2
M  END
