Coordinates from ORCA-job p-NO2-Ph-N2+-B3LYPG-aug-cc-pVDZ-scan-d09-49-n400
 OpenBabel09291715233D

 15 14  0  0  0  0  0  0  0  0999 V2000
   -2.2990   -0.2131   -0.6102 C   0  0  0  0  0  0  0  0  0  0  0  0
   -0.8753   -0.2578   -0.7351 C   0  0  0  0  0  0  0  0  0  0  0  0
   -0.4755    0.8665   -0.1459 C   0  0  0  0  0  0  0  0  0  0  0  0
   -0.7889    1.9907    0.4934 C   0  0  0  0  0  0  0  0  0  0  0  0
   -2.2159    1.9459    0.5694 C   0  0  0  0  0  0  0  0  0  0  0  0
   -2.9172    0.8664    0.0261 C   0  0  0  0  0  0  0  0  0  0  0  0
   -2.8822   -1.0394   -1.0228 H   0  0  0  0  0  0  0  0  0  0  0  0
   -0.3108   -1.0564   -1.2134 H   0  0  0  0  0  0  0  0  0  0  0  0
   -0.1629    2.7893    0.8879 H   0  0  0  0  0  0  0  0  0  0  0  0
   -2.7356    2.7722    1.0597 H   0  0  0  0  0  0  0  0  0  0  0  0
   -4.4038    0.8663    0.1310 N   0  0  0  0  0  0  0  0  0  0  0  0
   -4.9805   -0.0913   -0.3589 O   0  0  0  0  0  0  0  0  0  0  0  0
   -4.9067    1.8279    0.6895 O   0  0  0  0  0  0  0  0  0  0  0  0
    3.2324    0.8672   -0.4063 N   0  0  0  0  0  0  0  0  0  0  0  0
    4.3336    0.8674   -0.4833 N   0  0  0  0  0  0  0  0  0  0  0  0
  1  6  1  0  0  0  0
  2  1  2  0  0  0  0
  2  3  1  0  0  0  0
  3  4  2  0  0  0  0
  4  5  1  0  0  0  0
  4  9  1  0  0  0  0
  5 10  1  0  0  0  0
  6 11  1  0  0  0  0
  6  5  2  0  0  0  0
  7  1  1  0  0  0  0
  8  2  1  0  0  0  0
 11 13  2  0  0  0  0
 12 11  2  0  0  0  0
 15 14  3  0  0  0  0
M  RAD  1   3   2
M  END
