Coordinates from ORCA-job p-NO2-Ph-N2+-B3LYPG-aug-cc-pVDZ-scan-d09-49-n400
 OpenBabel09291715233D

 15 14  0  0  0  0  0  0  0  0999 V2000
   -2.4009   -0.2127   -0.6037 C   0  0  0  0  0  0  0  0  0  0  0  0
   -0.9775   -0.2585   -0.7288 C   0  0  0  0  0  0  0  0  0  0  0  0
   -0.5750    0.8660   -0.1397 C   0  0  0  0  0  0  0  0  0  0  0  0
   -0.8902    1.9907    0.5000 C   0  0  0  0  0  0  0  0  0  0  0  0
   -2.3172    1.9458    0.5756 C   0  0  0  0  0  0  0  0  0  0  0  0
   -3.0188    0.8668    0.0324 C   0  0  0  0  0  0  0  0  0  0  0  0
   -2.9839   -1.0391   -1.0166 H   0  0  0  0  0  0  0  0  0  0  0  0
   -0.4153   -1.0586   -1.2077 H   0  0  0  0  0  0  0  0  0  0  0  0
   -0.2660    2.7904    0.8953 H   0  0  0  0  0  0  0  0  0  0  0  0
   -2.8361    2.7726    1.0660 H   0  0  0  0  0  0  0  0  0  0  0  0
   -4.5055    0.8672    0.1371 N   0  0  0  0  0  0  0  0  0  0  0  0
   -5.0821   -0.0922   -0.3492 O   0  0  0  0  0  0  0  0  0  0  0  0
   -5.0077    1.8271    0.6992 O   0  0  0  0  0  0  0  0  0  0  0  0
    3.8931    0.8679   -0.4511 N   0  0  0  0  0  0  0  0  0  0  0  0
    4.9946    0.8682   -0.5276 N   0  0  0  0  0  0  0  0  0  0  0  0
  1  6  1  0  0  0  0
  2  1  2  0  0  0  0
  2  3  1  0  0  0  0
  3  4  2  0  0  0  0
  4  5  1  0  0  0  0
  4  9  1  0  0  0  0
  5 10  1  0  0  0  0
  6 11  1  0  0  0  0
  6  5  2  0  0  0  0
  7  1  1  0  0  0  0
  8  2  1  0  0  0  0
 11 13  2  0  0  0  0
 12 11  2  0  0  0  0
 15 14  3  0  0  0  0
M  RAD  1   3   2
M  END
