Coordinates from ORCA-job p-NO2-Ph-N2+-B3LYPG-aug-cc-pVDZ-scan-d09-49-n400
 OpenBabel09291715233D

 15 14  0  0  0  0  0  0  0  0999 V2000
   -2.3447   -0.2126   -0.6076 C   0  0  0  0  0  0  0  0  0  0  0  0
   -0.9214   -0.2580   -0.7324 C   0  0  0  0  0  0  0  0  0  0  0  0
   -0.5186    0.8664   -0.1433 C   0  0  0  0  0  0  0  0  0  0  0  0
   -0.8346    1.9909    0.4963 C   0  0  0  0  0  0  0  0  0  0  0  0
   -2.2615    1.9459    0.5718 C   0  0  0  0  0  0  0  0  0  0  0  0
   -2.9628    0.8668    0.0285 C   0  0  0  0  0  0  0  0  0  0  0  0
   -2.9277   -1.0390   -1.0204 H   0  0  0  0  0  0  0  0  0  0  0  0
   -0.3587   -1.0578   -1.2111 H   0  0  0  0  0  0  0  0  0  0  0  0
   -0.2103    2.7906    0.8916 H   0  0  0  0  0  0  0  0  0  0  0  0
   -2.7807    2.7725    1.0621 H   0  0  0  0  0  0  0  0  0  0  0  0
   -4.4496    0.8670    0.1330 N   0  0  0  0  0  0  0  0  0  0  0  0
   -5.0261   -0.0925   -0.3534 O   0  0  0  0  0  0  0  0  0  0  0  0
   -4.9520    1.8268    0.6951 O   0  0  0  0  0  0  0  0  0  0  0  0
    3.5295    0.8672   -0.4262 N   0  0  0  0  0  0  0  0  0  0  0  0
    4.6308    0.8673   -0.5029 N   0  0  0  0  0  0  0  0  0  0  0  0
  1  6  1  0  0  0  0
  2  1  2  0  0  0  0
  2  3  1  0  0  0  0
  3  4  2  0  0  0  0
  4  5  1  0  0  0  0
  4  9  1  0  0  0  0
  5 10  1  0  0  0  0
  6 11  1  0  0  0  0
  6  5  2  0  0  0  0
  7  1  1  0  0  0  0
  8  2  1  0  0  0  0
 11 13  2  0  0  0  0
 12 11  2  0  0  0  0
 15 14  3  0  0  0  0
M  RAD  1   3   2
M  END
