Coordinates from ORCA-job p-NO2-Ph-N2+-B3LYPG-aug-cc-pVDZ-scan-d09-49-n400
 OpenBabel09291715233D

 15 14  0  0  0  0  0  0  0  0999 V2000
   -2.1255   -0.2126   -0.6227 C   0  0  0  0  0  0  0  0  0  0  0  0
   -0.7098   -0.2518   -0.7436 C   0  0  0  0  0  0  0  0  0  0  0  0
   -0.2526    0.8667   -0.1615 C   0  0  0  0  0  0  0  0  0  0  0  0
   -0.6240    1.9852    0.4787 C   0  0  0  0  0  0  0  0  0  0  0  0
   -2.0427    1.9460    0.5568 C   0  0  0  0  0  0  0  0  0  0  0  0
   -2.7429    0.8667    0.0133 C   0  0  0  0  0  0  0  0  0  0  0  0
   -2.7145   -1.0346   -1.0326 H   0  0  0  0  0  0  0  0  0  0  0  0
   -0.1557   -1.0547   -1.2233 H   0  0  0  0  0  0  0  0  0  0  0  0
   -0.0083    2.7880    0.8763 H   0  0  0  0  0  0  0  0  0  0  0  0
   -2.5686    2.7680    1.0450 H   0  0  0  0  0  0  0  0  0  0  0  0
   -4.2304    0.8667    0.1178 N   0  0  0  0  0  0  0  0  0  0  0  0
   -4.8090   -0.0917   -0.3691 O   0  0  0  0  0  0  0  0  0  0  0  0
   -4.7354    1.8263    0.6786 O   0  0  0  0  0  0  0  0  0  0  0  0
    2.1153    0.8667   -0.3277 N   0  0  0  0  0  0  0  0  0  0  0  0
    3.2156    0.8667   -0.4049 N   0  0  0  0  0  0  0  0  0  0  0  0
  1  6  1  0  0  0  0
  2  1  2  0  0  0  0
  2  3  1  0  0  0  0
  3  4  2  0  0  0  0
  4  5  1  0  0  0  0
  4  9  1  0  0  0  0
  5 10  1  0  0  0  0
  6 11  1  0  0  0  0
  6  5  2  0  0  0  0
  7  1  1  0  0  0  0
  8  2  1  0  0  0  0
 11 13  2  0  0  0  0
 12 11  2  0  0  0  0
 15 14  3  0  0  0  0
M  RAD  1   3   2
M  END
