Coordinates from ORCA-job p-NO2-Ph-N2+-B3LYPG-aug-cc-pVDZ-scan-d09-49-n400
 OpenBabel09291715233D

 15 15  0  0  0  0  0  0  0  0999 V2000
   -2.0353   -0.2138   -0.6299 C   0  0  0  0  0  0  0  0  0  0  0  0
   -0.6450   -0.2308   -0.7366 C   0  0  0  0  0  0  0  0  0  0  0  0
    0.0112    0.8667   -0.1800 C   0  0  0  0  0  0  0  0  0  0  0  0
   -0.5608    1.9642    0.4627 C   0  0  0  0  0  0  0  0  0  0  0  0
   -1.9524    1.9474    0.5510 C   0  0  0  0  0  0  0  0  0  0  0  0
   -2.6512    0.8668    0.0066 C   0  0  0  0  0  0  0  0  0  0  0  0
   -2.6414   -1.0233   -1.0319 H   0  0  0  0  0  0  0  0  0  0  0  0
   -0.1131   -1.0466   -1.2218 H   0  0  0  0  0  0  0  0  0  0  0  0
    0.0337    2.7799    0.8690 H   0  0  0  0  0  0  0  0  0  0  0  0
   -2.4964    2.7570    1.0336 H   0  0  0  0  0  0  0  0  0  0  0  0
   -4.1445    0.8669    0.1113 N   0  0  0  0  0  0  0  0  0  0  0  0
   -4.7248   -0.0913   -0.3742 O   0  0  0  0  0  0  0  0  0  0  0  0
   -4.6513    1.8253    0.6728 O   0  0  0  0  0  0  0  0  0  0  0  0
    1.5390    0.8666   -0.2870 N   0  0  0  0  0  0  0  0  0  0  0  0
    2.6436    0.8665   -0.3644 N   0  0  0  0  0  0  0  0  0  0  0  0
  1  6  1  0  0  0  0
  2  1  2  0  0  0  0
  2  3  1  0  0  0  0
  3  4  2  0  0  0  0
  4  5  1  0  0  0  0
  4  9  1  0  0  0  0
  5 10  1  0  0  0  0
  6 11  1  0  0  0  0
  6  5  2  0  0  0  0
  7  1  1  0  0  0  0
  8  2  1  0  0  0  0
 11 13  2  0  0  0  0
 12 11  2  0  0  0  0
 14  3  1  0  0  0  0
 15 14  1  0  0  0  0
M  RAD  2  14   2  15   3
M  END
