Coordinates from ORCA-job p-NO2-Ph-N2+-B3LYPG-aug-cc-pVDZ-scan-d09-49-n400
 OpenBabel09291715233D

 15 14  0  0  0  0  0  0  0  0999 V2000
   -2.0812   -0.2126   -0.6260 C   0  0  0  0  0  0  0  0  0  0  0  0
   -0.6757   -0.2442   -0.7418 C   0  0  0  0  0  0  0  0  0  0  0  0
   -0.1424    0.8667   -0.1692 C   0  0  0  0  0  0  0  0  0  0  0  0
   -0.5905    1.9776    0.4721 C   0  0  0  0  0  0  0  0  0  0  0  0
   -1.9984    1.9462    0.5535 C   0  0  0  0  0  0  0  0  0  0  0  0
   -2.6975    0.8668    0.0099 C   0  0  0  0  0  0  0  0  0  0  0  0
   -2.6782   -1.0287   -1.0323 H   0  0  0  0  0  0  0  0  0  0  0  0
   -0.1311   -1.0520   -1.2235 H   0  0  0  0  0  0  0  0  0  0  0  0
    0.0161    2.7854    0.8731 H   0  0  0  0  0  0  0  0  0  0  0  0
   -2.5327    2.7624    1.0391 H   0  0  0  0  0  0  0  0  0  0  0  0
   -4.1869    0.8669    0.1143 N   0  0  0  0  0  0  0  0  0  0  0  0
   -4.7672   -0.0914   -0.3712 O   0  0  0  0  0  0  0  0  0  0  0  0
   -4.6936    1.8254    0.6760 O   0  0  0  0  0  0  0  0  0  0  0  0
    1.8355    0.8666   -0.3079 N   0  0  0  0  0  0  0  0  0  0  0  0
    2.9354    0.8665   -0.3849 N   0  0  0  0  0  0  0  0  0  0  0  0
  1  6  1  0  0  0  0
  2  1  2  0  0  0  0
  2  3  1  0  0  0  0
  3  4  2  0  0  0  0
  4  5  1  0  0  0  0
  4  9  1  0  0  0  0
  5 10  1  0  0  0  0
  6 11  1  0  0  0  0
  6  5  2  0  0  0  0
  7  1  1  0  0  0  0
  8  2  1  0  0  0  0
 11 13  2  0  0  0  0
 12 11  2  0  0  0  0
 15 14  3  0  0  0  0
M  RAD  1   3   2
M  END
