Coordinates from ORCA-job p-NO2-Ph-N2+-B3LYPG-aug-cc-pVDZ-scan-d09-49-n400
 OpenBabel09291715233D

 15 14  0  0  0  0  0  0  0  0999 V2000
   -2.1200   -0.2123   -0.6231 C   0  0  0  0  0  0  0  0  0  0  0  0
   -0.7058   -0.2511   -0.7435 C   0  0  0  0  0  0  0  0  0  0  0  0
   -0.2378    0.8667   -0.1626 C   0  0  0  0  0  0  0  0  0  0  0  0
   -0.6201    1.9845    0.4780 C   0  0  0  0  0  0  0  0  0  0  0  0
   -2.0372    1.9459    0.5561 C   0  0  0  0  0  0  0  0  0  0  0  0
   -2.7373    0.8668    0.0127 C   0  0  0  0  0  0  0  0  0  0  0  0
   -2.7095   -1.0338   -1.0328 H   0  0  0  0  0  0  0  0  0  0  0  0
   -0.1530   -1.0546   -1.2235 H   0  0  0  0  0  0  0  0  0  0  0  0
   -0.0056    2.7880    0.8761 H   0  0  0  0  0  0  0  0  0  0  0  0
   -2.5637    2.7674    1.0441 H   0  0  0  0  0  0  0  0  0  0  0  0
   -4.2250    0.8669    0.1170 N   0  0  0  0  0  0  0  0  0  0  0  0
   -4.8038   -0.0919   -0.3689 O   0  0  0  0  0  0  0  0  0  0  0  0
   -4.7302    1.8259    0.6788 O   0  0  0  0  0  0  0  0  0  0  0  0
    2.0801    0.8666   -0.3251 N   0  0  0  0  0  0  0  0  0  0  0  0
    3.1804    0.8665   -0.4022 N   0  0  0  0  0  0  0  0  0  0  0  0
  1  6  1  0  0  0  0
  2  1  2  0  0  0  0
  2  3  1  0  0  0  0
  3  4  2  0  0  0  0
  4  5  1  0  0  0  0
  4  9  1  0  0  0  0
  5 10  1  0  0  0  0
  6 11  1  0  0  0  0
  6  5  2  0  0  0  0
  7  1  1  0  0  0  0
  8  2  1  0  0  0  0
 11 13  2  0  0  0  0
 12 11  2  0  0  0  0
 15 14  3  0  0  0  0
M  RAD  1   3   2
M  END
