Coordinates from ORCA-job p-NO2-Ph-N2+-B3LYPG-aug-cc-pVDZ-scan-d09-49-n400
 OpenBabel09291715233D

 15 15  0  0  0  0  0  0  0  0999 V2000
   -2.0685   -0.2129   -0.6270 C   0  0  0  0  0  0  0  0  0  0  0  0
   -0.6669   -0.2408   -0.7406 C   0  0  0  0  0  0  0  0  0  0  0  0
   -0.1032    0.8667   -0.1720 C   0  0  0  0  0  0  0  0  0  0  0  0
   -0.5819    1.9742    0.4696 C   0  0  0  0  0  0  0  0  0  0  0  0
   -1.9856    1.9465    0.5528 C   0  0  0  0  0  0  0  0  0  0  0  0
   -2.6844    0.8668    0.0089 C   0  0  0  0  0  0  0  0  0  0  0  0
   -2.6685   -1.0268   -1.0319 H   0  0  0  0  0  0  0  0  0  0  0  0
   -0.1254   -1.0504   -1.2231 H   0  0  0  0  0  0  0  0  0  0  0  0
    0.0217    2.7838    0.8719 H   0  0  0  0  0  0  0  0  0  0  0  0
   -2.5233    2.7604    1.0374 H   0  0  0  0  0  0  0  0  0  0  0  0
   -4.1747    0.8669    0.1134 N   0  0  0  0  0  0  0  0  0  0  0  0
   -4.7553   -0.0913   -0.3720 O   0  0  0  0  0  0  0  0  0  0  0  0
   -4.6818    1.8252    0.6750 O   0  0  0  0  0  0  0  0  0  0  0  0
    1.7546    0.8666   -0.3022 N   0  0  0  0  0  0  0  0  0  0  0  0
    2.8547    0.8665   -0.3792 N   0  0  0  0  0  0  0  0  0  0  0  0
  1  6  1  0  0  0  0
  2  1  2  0  0  0  0
  2  3  1  0  0  0  0
  3  4  2  0  0  0  0
  4  5  1  0  0  0  0
  4  9  1  0  0  0  0
  5 10  1  0  0  0  0
  6 11  1  0  0  0  0
  6  5  2  0  0  0  0
  7  1  1  0  0  0  0
  8  2  1  0  0  0  0
 11 13  2  0  0  0  0
 12 11  2  0  0  0  0
 14  3  1  0  0  0  0
 15 14  1  0  0  0  0
M  RAD  2  14   2  15   3
M  END
