Coordinates from ORCA-job p-NO2-Ph-N2+-B3LYPG-aug-cc-pVDZ-scan-d09-49-n400
 OpenBabel09291715233D

 15 15  0  0  0  0  0  0  0  0999 V2000
   -2.0335   -0.2138   -0.6301 C   0  0  0  0  0  0  0  0  0  0  0  0
   -0.6441   -0.2301   -0.7363 C   0  0  0  0  0  0  0  0  0  0  0  0
    0.0190    0.8667   -0.1805 C   0  0  0  0  0  0  0  0  0  0  0  0
   -0.5599    1.9635    0.4622 C   0  0  0  0  0  0  0  0  0  0  0  0
   -1.9506    1.9475    0.5508 C   0  0  0  0  0  0  0  0  0  0  0  0
   -2.6495    0.8669    0.0064 C   0  0  0  0  0  0  0  0  0  0  0  0
   -2.6397   -1.0232   -1.0321 H   0  0  0  0  0  0  0  0  0  0  0  0
   -0.1127   -1.0464   -1.2217 H   0  0  0  0  0  0  0  0  0  0  0  0
    0.0340    2.7797    0.8688 H   0  0  0  0  0  0  0  0  0  0  0  0
   -2.4947    2.7570    1.0334 H   0  0  0  0  0  0  0  0  0  0  0  0
   -4.1430    0.8670    0.1110 N   0  0  0  0  0  0  0  0  0  0  0  0
   -4.7232   -0.0914   -0.3741 O   0  0  0  0  0  0  0  0  0  0  0  0
   -4.6496    1.8252    0.6729 O   0  0  0  0  0  0  0  0  0  0  0  0
    1.5269    0.8665   -0.2861 N   0  0  0  0  0  0  0  0  0  0  0  0
    2.6321    0.8664   -0.3635 N   0  0  0  0  0  0  0  0  0  0  0  0
  1  6  1  0  0  0  0
  2  1  2  0  0  0  0
  2  3  1  0  0  0  0
  3  4  2  0  0  0  0
  4  5  1  0  0  0  0
  4  9  1  0  0  0  0
  5 10  1  0  0  0  0
  6 11  1  0  0  0  0
  6  5  2  0  0  0  0
  7  1  1  0  0  0  0
  8  2  1  0  0  0  0
 11 13  2  0  0  0  0
 12 11  2  0  0  0  0
 14  3  1  0  0  0  0
 15 14  1  0  0  0  0
M  RAD  2  14   2  15   3
M  END
