Coordinates from ORCA-job p-NO2-Ph-N2+-B3LYPG-aug-cc-pVDZ-scan-d09-49-n400
 OpenBabel09291715233D

 15 14  0  0  0  0  0  0  0  0999 V2000
   -2.3421   -0.2126   -0.6078 C   0  0  0  0  0  0  0  0  0  0  0  0
   -0.9187   -0.2580   -0.7326 C   0  0  0  0  0  0  0  0  0  0  0  0
   -0.5159    0.8664   -0.1435 C   0  0  0  0  0  0  0  0  0  0  0  0
   -0.8320    1.9909    0.4961 C   0  0  0  0  0  0  0  0  0  0  0  0
   -2.2588    1.9459    0.5716 C   0  0  0  0  0  0  0  0  0  0  0  0
   -2.9602    0.8668    0.0283 C   0  0  0  0  0  0  0  0  0  0  0  0
   -2.9251   -1.0390   -1.0206 H   0  0  0  0  0  0  0  0  0  0  0  0
   -0.3560   -1.0578   -1.2113 H   0  0  0  0  0  0  0  0  0  0  0  0
   -0.2076    2.7906    0.8914 H   0  0  0  0  0  0  0  0  0  0  0  0
   -2.7781    2.7725    1.0619 H   0  0  0  0  0  0  0  0  0  0  0  0
   -4.4469    0.8670    0.1328 N   0  0  0  0  0  0  0  0  0  0  0  0
   -5.0234   -0.0925   -0.3535 O   0  0  0  0  0  0  0  0  0  0  0  0
   -4.9494    1.8268    0.6949 O   0  0  0  0  0  0  0  0  0  0  0  0
    3.5121    0.8671   -0.4249 N   0  0  0  0  0  0  0  0  0  0  0  0
    4.6135    0.8672   -0.5017 N   0  0  0  0  0  0  0  0  0  0  0  0
  1  6  1  0  0  0  0
  2  1  2  0  0  0  0
  2  3  1  0  0  0  0
  3  4  2  0  0  0  0
  4  5  1  0  0  0  0
  4  9  1  0  0  0  0
  5 10  1  0  0  0  0
  6 11  1  0  0  0  0
  6  5  2  0  0  0  0
  7  1  1  0  0  0  0
  8  2  1  0  0  0  0
 11 13  2  0  0  0  0
 12 11  2  0  0  0  0
 15 14  3  0  0  0  0
M  RAD  1   3   2
M  END
