Coordinates from ORCA-job p-NO2-Ph-N2+-B3LYPG-aug-cc-pVDZ-scan-d09-49-n400
 OpenBabel09291715233D

 15 15  0  0  0  0  0  0  0  0999 V2000
   -2.0054   -0.2138   -0.6321 C   0  0  0  0  0  0  0  0  0  0  0  0
   -0.6255   -0.2259   -0.7353 C   0  0  0  0  0  0  0  0  0  0  0  0
    0.1193    0.8666   -0.1875 C   0  0  0  0  0  0  0  0  0  0  0  0
   -0.5417    1.9593    0.4587 C   0  0  0  0  0  0  0  0  0  0  0  0
   -1.9225    1.9475    0.5488 C   0  0  0  0  0  0  0  0  0  0  0  0
   -2.6236    0.8669    0.0046 C   0  0  0  0  0  0  0  0  0  0  0  0
   -2.6109   -1.0239   -1.0345 H   0  0  0  0  0  0  0  0  0  0  0  0
   -0.0977   -1.0454   -1.2222 H   0  0  0  0  0  0  0  0  0  0  0  0
    0.0490    2.7787    0.8673 H   0  0  0  0  0  0  0  0  0  0  0  0
   -2.4658    2.7577    1.0317 H   0  0  0  0  0  0  0  0  0  0  0  0
   -4.1190    0.8671    0.1093 N   0  0  0  0  0  0  0  0  0  0  0  0
   -4.6963   -0.0923   -0.3763 O   0  0  0  0  0  0  0  0  0  0  0  0
   -4.6227    1.8261    0.6714 O   0  0  0  0  0  0  0  0  0  0  0  0
    1.3271    0.8665   -0.2721 N   0  0  0  0  0  0  0  0  0  0  0  0
    2.4472    0.8664   -0.3505 N   0  0  0  0  0  0  0  0  0  0  0  0
  1  6  1  0  0  0  0
  2  1  2  0  0  0  0
  2  3  1  0  0  0  0
  3  4  2  0  0  0  0
  4  5  1  0  0  0  0
  4  9  1  0  0  0  0
  5 10  1  0  0  0  0
  6 11  1  0  0  0  0
  6  5  2  0  0  0  0
  7  1  1  0  0  0  0
  8  2  1  0  0  0  0
 11 13  2  0  0  0  0
 12 11  2  0  0  0  0
 14  3  1  0  0  0  0
 15 14  1  0  0  0  0
M  RAD  2  14   2  15   3
M  END
