Coordinates from ORCA-job p-NO2-Ph-N2+-B3LYPG-aug-cc-pVDZ-scan-d09-49-n400
 OpenBabel09291715233D

 15 14  0  0  0  0  0  0  0  0999 V2000
   -2.4154   -0.2129   -0.6030 C   0  0  0  0  0  0  0  0  0  0  0  0
   -0.9916   -0.2584   -0.7279 C   0  0  0  0  0  0  0  0  0  0  0  0
   -0.5922    0.8659   -0.1386 C   0  0  0  0  0  0  0  0  0  0  0  0
   -0.9041    1.9904    0.5008 C   0  0  0  0  0  0  0  0  0  0  0  0
   -2.3315    1.9460    0.5766 C   0  0  0  0  0  0  0  0  0  0  0  0
   -3.0332    0.8668    0.0333 C   0  0  0  0  0  0  0  0  0  0  0  0
   -2.9984   -1.0394   -1.0158 H   0  0  0  0  0  0  0  0  0  0  0  0
   -0.4282   -1.0579   -1.2064 H   0  0  0  0  0  0  0  0  0  0  0  0
   -0.2787    2.7895    0.8956 H   0  0  0  0  0  0  0  0  0  0  0  0
   -2.8502    2.7729    1.0670 H   0  0  0  0  0  0  0  0  0  0  0  0
   -4.5199    0.8674    0.1380 N   0  0  0  0  0  0  0  0  0  0  0  0
   -5.0965   -0.0923   -0.3478 O   0  0  0  0  0  0  0  0  0  0  0  0
   -5.0219    1.8271    0.7006 O   0  0  0  0  0  0  0  0  0  0  0  0
    3.9859    0.8681   -0.4574 N   0  0  0  0  0  0  0  0  0  0  0  0
    5.0874    0.8684   -0.5338 N   0  0  0  0  0  0  0  0  0  0  0  0
  1  6  1  0  0  0  0
  2  1  2  0  0  0  0
  2  3  1  0  0  0  0
  3  4  2  0  0  0  0
  4  5  1  0  0  0  0
  4  9  1  0  0  0  0
  5 10  1  0  0  0  0
  6 11  1  0  0  0  0
  6  5  2  0  0  0  0
  7  1  1  0  0  0  0
  8  2  1  0  0  0  0
 11 13  2  0  0  0  0
 12 11  2  0  0  0  0
 15 14  3  0  0  0  0
M  RAD  1   3   2
M  END
