Coordinates from ORCA-job p-NO2-Ph-N2+-B3LYPG-aug-cc-pVDZ-scan-d09-49-n400
 OpenBabel09291715233D

 15 15  0  0  0  0  0  0  0  0999 V2000
   -2.0287   -0.2142   -0.6299 C   0  0  0  0  0  0  0  0  0  0  0  0
   -0.6410   -0.2289   -0.7357 C   0  0  0  0  0  0  0  0  0  0  0  0
    0.0365    0.8667   -0.1818 C   0  0  0  0  0  0  0  0  0  0  0  0
   -0.5569    1.9622    0.4615 C   0  0  0  0  0  0  0  0  0  0  0  0
   -1.9458    1.9472    0.5511 C   0  0  0  0  0  0  0  0  0  0  0  0
   -2.6449    0.8664    0.0069 C   0  0  0  0  0  0  0  0  0  0  0  0
   -2.6351   -1.0236   -1.0316 H   0  0  0  0  0  0  0  0  0  0  0  0
   -0.1109   -1.0460   -1.2217 H   0  0  0  0  0  0  0  0  0  0  0  0
    0.0359    2.7793    0.8685 H   0  0  0  0  0  0  0  0  0  0  0  0
   -2.4901    2.7565    1.0338 H   0  0  0  0  0  0  0  0  0  0  0  0
   -4.1389    0.8662    0.1122 N   0  0  0  0  0  0  0  0  0  0  0  0
   -4.7188   -0.0905   -0.3764 O   0  0  0  0  0  0  0  0  0  0  0  0
   -4.6453    1.8264    0.6707 O   0  0  0  0  0  0  0  0  0  0  0  0
    1.4943    0.8668   -0.2844 N   0  0  0  0  0  0  0  0  0  0  0  0
    2.6011    0.8669   -0.3623 N   0  0  0  0  0  0  0  0  0  0  0  0
  1  6  1  0  0  0  0
  2  1  2  0  0  0  0
  2  3  1  0  0  0  0
  3  4  2  0  0  0  0
  4  5  1  0  0  0  0
  4  9  1  0  0  0  0
  5 10  1  0  0  0  0
  6 11  1  0  0  0  0
  6  5  2  0  0  0  0
  7  1  1  0  0  0  0
  8  2  1  0  0  0  0
 11 13  2  0  0  0  0
 12 11  2  0  0  0  0
 14  3  1  0  0  0  0
 15 14  1  0  0  0  0
M  RAD  2  14   2  15   3
M  END
