Coordinates from ORCA-job p-NO2-Ph-N2+-B3LYPG-aug-cc-pVDZ-scan-d09-49-n400
 OpenBabel09291715233D

 15 14  0  0  0  0  0  0  0  0999 V2000
   -2.2512   -0.2127   -0.6144 C   0  0  0  0  0  0  0  0  0  0  0  0
   -0.8279   -0.2572   -0.7385 C   0  0  0  0  0  0  0  0  0  0  0  0
   -0.4258    0.8667   -0.1496 C   0  0  0  0  0  0  0  0  0  0  0  0
   -0.7416    1.9907    0.4897 C   0  0  0  0  0  0  0  0  0  0  0  0
   -2.1683    1.9465    0.5653 C   0  0  0  0  0  0  0  0  0  0  0  0
   -2.8694    0.8669    0.0217 C   0  0  0  0  0  0  0  0  0  0  0  0
   -2.8348   -1.0386   -1.0270 H   0  0  0  0  0  0  0  0  0  0  0  0
   -0.2632   -1.0556   -1.2165 H   0  0  0  0  0  0  0  0  0  0  0  0
   -0.1155    2.7889    0.8841 H   0  0  0  0  0  0  0  0  0  0  0  0
   -2.6885    2.7725    1.0553 H   0  0  0  0  0  0  0  0  0  0  0  0
   -4.3560    0.8671    0.1259 N   0  0  0  0  0  0  0  0  0  0  0  0
   -4.9326   -0.0929   -0.3595 O   0  0  0  0  0  0  0  0  0  0  0  0
   -4.8589    1.8262    0.6889 O   0  0  0  0  0  0  0  0  0  0  0  0
    2.9221    0.8666   -0.3838 N   0  0  0  0  0  0  0  0  0  0  0  0
    4.0232    0.8665   -0.4606 N   0  0  0  0  0  0  0  0  0  0  0  0
  1  6  1  0  0  0  0
  2  1  2  0  0  0  0
  2  3  1  0  0  0  0
  3  4  2  0  0  0  0
  4  5  1  0  0  0  0
  4  9  1  0  0  0  0
  5 10  1  0  0  0  0
  6 11  1  0  0  0  0
  6  5  2  0  0  0  0
  7  1  1  0  0  0  0
  8  2  1  0  0  0  0
 11 13  2  0  0  0  0
 12 11  2  0  0  0  0
 15 14  3  0  0  0  0
M  RAD  1   3   2
M  END
