Coordinates from ORCA-job p-NO2-Ph-N2+-B3LYPG-aug-cc-pVDZ-scan-d09-49-n400
 OpenBabel09291715233D

 15 14  0  0  0  0  0  0  0  0999 V2000
   -2.3849   -0.2126   -0.6048 C   0  0  0  0  0  0  0  0  0  0  0  0
   -0.9614   -0.2583   -0.7299 C   0  0  0  0  0  0  0  0  0  0  0  0
   -0.5589    0.8661   -0.1407 C   0  0  0  0  0  0  0  0  0  0  0  0
   -0.8743    1.9908    0.4990 C   0  0  0  0  0  0  0  0  0  0  0  0
   -2.3013    1.9458    0.5745 C   0  0  0  0  0  0  0  0  0  0  0  0
   -3.0028    0.8668    0.0313 C   0  0  0  0  0  0  0  0  0  0  0  0
   -2.9679   -1.0391   -1.0177 H   0  0  0  0  0  0  0  0  0  0  0  0
   -0.3991   -1.0584   -1.2086 H   0  0  0  0  0  0  0  0  0  0  0  0
   -0.2501    2.7905    0.8943 H   0  0  0  0  0  0  0  0  0  0  0  0
   -2.8203    2.7726    1.0649 H   0  0  0  0  0  0  0  0  0  0  0  0
   -4.4895    0.8672    0.1359 N   0  0  0  0  0  0  0  0  0  0  0  0
   -5.0661   -0.0923   -0.3504 O   0  0  0  0  0  0  0  0  0  0  0  0
   -4.9918    1.8270    0.6980 O   0  0  0  0  0  0  0  0  0  0  0  0
    3.7892    0.8677   -0.4440 N   0  0  0  0  0  0  0  0  0  0  0  0
    4.8906    0.8679   -0.5206 N   0  0  0  0  0  0  0  0  0  0  0  0
  1  6  1  0  0  0  0
  2  1  2  0  0  0  0
  2  3  1  0  0  0  0
  3  4  2  0  0  0  0
  4  5  1  0  0  0  0
  4  9  1  0  0  0  0
  5 10  1  0  0  0  0
  6 11  1  0  0  0  0
  6  5  2  0  0  0  0
  7  1  1  0  0  0  0
  8  2  1  0  0  0  0
 11 13  2  0  0  0  0
 12 11  2  0  0  0  0
 15 14  3  0  0  0  0
M  RAD  1   3   2
M  END
