Coordinates from ORCA-job p-NO2-Ph-N2+-B3LYPG-aug-cc-pVDZ-scan-d09-49-n400
 OpenBabel09291715233D

 15 14  0  0  0  0  0  0  0  0999 V2000
   -2.4492   -0.2128   -0.6004 C   0  0  0  0  0  0  0  0  0  0  0  0
   -1.0257   -0.2590   -0.7258 C   0  0  0  0  0  0  0  0  0  0  0  0
   -0.6231    0.8654   -0.1367 C   0  0  0  0  0  0  0  0  0  0  0  0
   -0.9378    1.9902    0.5030 C   0  0  0  0  0  0  0  0  0  0  0  0
   -2.3649    1.9456    0.5788 C   0  0  0  0  0  0  0  0  0  0  0  0
   -3.0668    0.8667    0.0357 C   0  0  0  0  0  0  0  0  0  0  0  0
   -3.0324   -1.0392   -1.0132 H   0  0  0  0  0  0  0  0  0  0  0  0
   -0.4640   -1.0594   -1.2048 H   0  0  0  0  0  0  0  0  0  0  0  0
   -0.3136    2.7900    0.8983 H   0  0  0  0  0  0  0  0  0  0  0  0
   -2.8834    2.7726    1.0693 H   0  0  0  0  0  0  0  0  0  0  0  0
   -4.5535    0.8675    0.1406 N   0  0  0  0  0  0  0  0  0  0  0  0
   -5.1304   -0.0918   -0.3456 O   0  0  0  0  0  0  0  0  0  0  0  0
   -5.0553    1.8275    0.7029 O   0  0  0  0  0  0  0  0  0  0  0  0
    4.2051    0.8688   -0.4724 N   0  0  0  0  0  0  0  0  0  0  0  0
    5.3066    0.8693   -0.5487 N   0  0  0  0  0  0  0  0  0  0  0  0
  1  6  1  0  0  0  0
  2  1  2  0  0  0  0
  2  3  1  0  0  0  0
  3  4  2  0  0  0  0
  4  5  1  0  0  0  0
  4  9  1  0  0  0  0
  5 10  1  0  0  0  0
  6 11  1  0  0  0  0
  6  5  2  0  0  0  0
  7  1  1  0  0  0  0
  8  2  1  0  0  0  0
 11 13  2  0  0  0  0
 12 11  2  0  0  0  0
 15 14  3  0  0  0  0
M  RAD  1   3   2
M  END
