Coordinates from ORCA-job p-NO2-Ph-N2+-B3LYPG-aug-cc-pVDZ-scan-d09-49-n400
 OpenBabel09291715233D

 15 14  0  0  0  0  0  0  0  0999 V2000
   -2.4208   -0.2129   -0.6026 C   0  0  0  0  0  0  0  0  0  0  0  0
   -0.9969   -0.2585   -0.7276 C   0  0  0  0  0  0  0  0  0  0  0  0
   -0.5976    0.8658   -0.1383 C   0  0  0  0  0  0  0  0  0  0  0  0
   -0.9094    1.9904    0.5011 C   0  0  0  0  0  0  0  0  0  0  0  0
   -2.3368    1.9460    0.5769 C   0  0  0  0  0  0  0  0  0  0  0  0
   -3.0386    0.8668    0.0336 C   0  0  0  0  0  0  0  0  0  0  0  0
   -3.0038   -1.0394   -1.0155 H   0  0  0  0  0  0  0  0  0  0  0  0
   -0.4336   -1.0580   -1.2061 H   0  0  0  0  0  0  0  0  0  0  0  0
   -0.2840    2.7894    0.8959 H   0  0  0  0  0  0  0  0  0  0  0  0
   -2.8555    2.7729    1.0674 H   0  0  0  0  0  0  0  0  0  0  0  0
   -4.5253    0.8674    0.1384 N   0  0  0  0  0  0  0  0  0  0  0  0
   -5.1019   -0.0923   -0.3474 O   0  0  0  0  0  0  0  0  0  0  0  0
   -5.0272    1.8271    0.7010 O   0  0  0  0  0  0  0  0  0  0  0  0
    4.0206    0.8682   -0.4597 N   0  0  0  0  0  0  0  0  0  0  0  0
    5.1221    0.8685   -0.5361 N   0  0  0  0  0  0  0  0  0  0  0  0
  1  6  1  0  0  0  0
  2  1  2  0  0  0  0
  2  3  1  0  0  0  0
  3  4  2  0  0  0  0
  4  5  1  0  0  0  0
  4  9  1  0  0  0  0
  5 10  1  0  0  0  0
  6 11  1  0  0  0  0
  6  5  2  0  0  0  0
  7  1  1  0  0  0  0
  8  2  1  0  0  0  0
 11 13  2  0  0  0  0
 12 11  2  0  0  0  0
 15 14  3  0  0  0  0
M  RAD  1   3   2
M  END
