Coordinates from ORCA-job p-NO2-Ph-N2+-B3LYPG-aug-cc-pVDZ-scan-d09-49-n400
 OpenBabel09291715233D

 15 15  0  0  0  0  0  0  0  0999 V2000
   -1.9922   -0.2136   -0.6332 C   0  0  0  0  0  0  0  0  0  0  0  0
   -0.6179   -0.2269   -0.7371 C   0  0  0  0  0  0  0  0  0  0  0  0
    0.1731    0.8682   -0.1942 C   0  0  0  0  0  0  0  0  0  0  0  0
   -0.5340    1.9609    0.4582 C   0  0  0  0  0  0  0  0  0  0  0  0
   -1.9093    1.9475    0.5475 C   0  0  0  0  0  0  0  0  0  0  0  0
   -2.6124    0.8671    0.0034 C   0  0  0  0  0  0  0  0  0  0  0  0
   -2.5967   -1.0251   -1.0354 H   0  0  0  0  0  0  0  0  0  0  0  0
   -0.0852   -1.0451   -1.2226 H   0  0  0  0  0  0  0  0  0  0  0  0
    0.0614    2.7783    0.8662 H   0  0  0  0  0  0  0  0  0  0  0  0
   -2.4516    2.7583    1.0317 H   0  0  0  0  0  0  0  0  0  0  0  0
   -4.1076    0.8668    0.1090 N   0  0  0  0  0  0  0  0  0  0  0  0
   -4.6833   -0.0928   -0.3776 O   0  0  0  0  0  0  0  0  0  0  0  0
   -4.6096    1.8263    0.6715 O   0  0  0  0  0  0  0  0  0  0  0  0
    1.2211    0.8667   -0.2649 N   0  0  0  0  0  0  0  0  0  0  0  0
    2.3557    0.8649   -0.3414 N   0  0  0  0  0  0  0  0  0  0  0  0
  1  6  1  0  0  0  0
  2  1  2  0  0  0  0
  2  3  1  0  0  0  0
  3  4  2  0  0  0  0
  4  5  1  0  0  0  0
  4  9  1  0  0  0  0
  5 10  1  0  0  0  0
  6 11  1  0  0  0  0
  6  5  2  0  0  0  0
  7  1  1  0  0  0  0
  8  2  1  0  0  0  0
 11 13  2  0  0  0  0
 12 11  2  0  0  0  0
 14  3  1  0  0  0  0
 15 14  1  0  0  0  0
M  RAD  2  14   2  15   3
M  END
