Coordinates from ORCA-job p-NO2-Ph-N2+-B3LYPG-aug-cc-pVDZ-scan-d09-49-n400
 OpenBabel09291715233D

 15 14  0  0  0  0  0  0  0  0999 V2000
   -2.1153   -0.2123   -0.6235 C   0  0  0  0  0  0  0  0  0  0  0  0
   -0.7021   -0.2504   -0.7434 C   0  0  0  0  0  0  0  0  0  0  0  0
   -0.2274    0.8667   -0.1633 C   0  0  0  0  0  0  0  0  0  0  0  0
   -0.6164    1.9838    0.4773 C   0  0  0  0  0  0  0  0  0  0  0  0
   -2.0325    1.9459    0.5557 C   0  0  0  0  0  0  0  0  0  0  0  0
   -2.7325    0.8668    0.0123 C   0  0  0  0  0  0  0  0  0  0  0  0
   -2.7056   -1.0332   -1.0329 H   0  0  0  0  0  0  0  0  0  0  0  0
   -0.1501   -1.0544   -1.2236 H   0  0  0  0  0  0  0  0  0  0  0  0
   -0.0027    2.7878    0.8758 H   0  0  0  0  0  0  0  0  0  0  0  0
   -2.5598    2.7669    1.0434 H   0  0  0  0  0  0  0  0  0  0  0  0
   -4.2204    0.8669    0.1166 N   0  0  0  0  0  0  0  0  0  0  0  0
   -4.7993   -0.0920   -0.3691 O   0  0  0  0  0  0  0  0  0  0  0  0
   -4.7257    1.8258    0.6786 O   0  0  0  0  0  0  0  0  0  0  0  0
    2.0505    0.8665   -0.3229 N   0  0  0  0  0  0  0  0  0  0  0  0
    3.1508    0.8665   -0.4000 N   0  0  0  0  0  0  0  0  0  0  0  0
  1  6  1  0  0  0  0
  2  1  2  0  0  0  0
  2  3  1  0  0  0  0
  3  4  2  0  0  0  0
  4  5  1  0  0  0  0
  4  9  1  0  0  0  0
  5 10  1  0  0  0  0
  6 11  1  0  0  0  0
  6  5  2  0  0  0  0
  7  1  1  0  0  0  0
  8  2  1  0  0  0  0
 11 13  2  0  0  0  0
 12 11  2  0  0  0  0
 15 14  3  0  0  0  0
M  RAD  1   3   2
M  END
