Coordinates from ORCA-job p-NO2-Ph-N2+-B3LYPG-aug-cc-pVDZ-scan-d09-49-n400
 OpenBabel09291715233D

 15 14  0  0  0  0  0  0  0  0999 V2000
   -2.3929   -0.2127   -0.6043 C   0  0  0  0  0  0  0  0  0  0  0  0
   -0.9694   -0.2584   -0.7293 C   0  0  0  0  0  0  0  0  0  0  0  0
   -0.5669    0.8660   -0.1402 C   0  0  0  0  0  0  0  0  0  0  0  0
   -0.8823    1.9907    0.4995 C   0  0  0  0  0  0  0  0  0  0  0  0
   -2.3092    1.9458    0.5750 C   0  0  0  0  0  0  0  0  0  0  0  0
   -3.0108    0.8668    0.0318 C   0  0  0  0  0  0  0  0  0  0  0  0
   -2.9759   -1.0391   -1.0171 H   0  0  0  0  0  0  0  0  0  0  0  0
   -0.4072   -1.0585   -1.2082 H   0  0  0  0  0  0  0  0  0  0  0  0
   -0.2580    2.7905    0.8948 H   0  0  0  0  0  0  0  0  0  0  0  0
   -2.8282    2.7726    1.0654 H   0  0  0  0  0  0  0  0  0  0  0  0
   -4.4975    0.8672    0.1365 N   0  0  0  0  0  0  0  0  0  0  0  0
   -5.0741   -0.0922   -0.3498 O   0  0  0  0  0  0  0  0  0  0  0  0
   -4.9997    1.8271    0.6986 O   0  0  0  0  0  0  0  0  0  0  0  0
    3.8412    0.8678   -0.4476 N   0  0  0  0  0  0  0  0  0  0  0  0
    4.9426    0.8680   -0.5241 N   0  0  0  0  0  0  0  0  0  0  0  0
  1  6  1  0  0  0  0
  2  1  2  0  0  0  0
  2  3  1  0  0  0  0
  3  4  2  0  0  0  0
  4  5  1  0  0  0  0
  4  9  1  0  0  0  0
  5 10  1  0  0  0  0
  6 11  1  0  0  0  0
  6  5  2  0  0  0  0
  7  1  1  0  0  0  0
  8  2  1  0  0  0  0
 11 13  2  0  0  0  0
 12 11  2  0  0  0  0
 15 14  3  0  0  0  0
M  RAD  1   3   2
M  END
