Coordinates from ORCA-job p-NO2-Ph-N2+-B3LYPG-aug-cc-pVDZ-scan-d09-49-n400
 OpenBabel09291715233D

 15 15  0  0  0  0  0  0  0  0999 V2000
   -2.0707   -0.2130   -0.6264 C   0  0  0  0  0  0  0  0  0  0  0  0
   -0.6686   -0.2412   -0.7405 C   0  0  0  0  0  0  0  0  0  0  0  0
   -0.1089    0.8667   -0.1716 C   0  0  0  0  0  0  0  0  0  0  0  0
   -0.5836    1.9745    0.4701 C   0  0  0  0  0  0  0  0  0  0  0  0
   -1.9878    1.9462    0.5533 C   0  0  0  0  0  0  0  0  0  0  0  0
   -2.6866    0.8665    0.0097 C   0  0  0  0  0  0  0  0  0  0  0  0
   -2.6703   -1.0273   -1.0314 H   0  0  0  0  0  0  0  0  0  0  0  0
   -0.1267   -1.0505   -1.2230 H   0  0  0  0  0  0  0  0  0  0  0  0
    0.0204    2.7839    0.8720 H   0  0  0  0  0  0  0  0  0  0  0  0
   -2.5250    2.7604    1.0382 H   0  0  0  0  0  0  0  0  0  0  0  0
   -4.1768    0.8664    0.1145 N   0  0  0  0  0  0  0  0  0  0  0  0
   -4.7575   -0.0906   -0.3732 O   0  0  0  0  0  0  0  0  0  0  0  0
   -4.6840    1.8260    0.6738 O   0  0  0  0  0  0  0  0  0  0  0  0
    1.7689    0.8668   -0.3036 N   0  0  0  0  0  0  0  0  0  0  0  0
    2.8689    0.8668   -0.3809 N   0  0  0  0  0  0  0  0  0  0  0  0
  1  6  1  0  0  0  0
  2  1  2  0  0  0  0
  2  3  1  0  0  0  0
  3  4  2  0  0  0  0
  4  5  1  0  0  0  0
  4  9  1  0  0  0  0
  5 10  1  0  0  0  0
  6 11  1  0  0  0  0
  6  5  2  0  0  0  0
  7  1  1  0  0  0  0
  8  2  1  0  0  0  0
 11 13  2  0  0  0  0
 12 11  2  0  0  0  0
 14  3  1  0  0  0  0
 15 14  1  0  0  0  0
M  RAD  2  14   2  15   3
M  END
