Coordinates from ORCA-job p-NO2-Ph-N2+-B3LYPG-aug-cc-pVDZ-scan-d09-49-n400
 OpenBabel09291715233D

 15 15  0  0  0  0  0  0  0  0999 V2000
   -2.0674   -0.2135   -0.6259 C   0  0  0  0  0  0  0  0  0  0  0  0
   -0.6664   -0.2405   -0.7400 C   0  0  0  0  0  0  0  0  0  0  0  0
   -0.0990    0.8667   -0.1723 C   0  0  0  0  0  0  0  0  0  0  0  0
   -0.5815    1.9735    0.4697 C   0  0  0  0  0  0  0  0  0  0  0  0
   -1.9846    1.9458    0.5539 C   0  0  0  0  0  0  0  0  0  0  0  0
   -2.6833    0.8659    0.0105 C   0  0  0  0  0  0  0  0  0  0  0  0
   -2.6678   -1.0274   -1.0302 H   0  0  0  0  0  0  0  0  0  0  0  0
   -0.1253   -1.0502   -1.2229 H   0  0  0  0  0  0  0  0  0  0  0  0
    0.0217    2.7836    0.8717 H   0  0  0  0  0  0  0  0  0  0  0  0
   -2.5226    2.7593    1.0388 H   0  0  0  0  0  0  0  0  0  0  0  0
   -4.1737    0.8654    0.1161 N   0  0  0  0  0  0  0  0  0  0  0  0
   -4.7548   -0.0891   -0.3759 O   0  0  0  0  0  0  0  0  0  0  0  0
   -4.6813    1.8273    0.6711 O   0  0  0  0  0  0  0  0  0  0  0  0
    1.7487    0.8672   -0.3029 N   0  0  0  0  0  0  0  0  0  0  0  0
    2.8487    0.8675   -0.3806 N   0  0  0  0  0  0  0  0  0  0  0  0
  1  6  1  0  0  0  0
  2  1  2  0  0  0  0
  2  3  1  0  0  0  0
  3  4  2  0  0  0  0
  4  5  1  0  0  0  0
  4  9  1  0  0  0  0
  5 10  1  0  0  0  0
  6 11  1  0  0  0  0
  6  5  2  0  0  0  0
  7  1  1  0  0  0  0
  8  2  1  0  0  0  0
 11 13  2  0  0  0  0
 12 11  2  0  0  0  0
 14  3  1  0  0  0  0
 15 14  1  0  0  0  0
M  RAD  2  14   2  15   3
M  END
