Coordinates from ORCA-job p-NO2-Ph-N2+-B3LYPG-aug-cc-pVDZ-scan-d09-49-n400
 OpenBabel09291715233D

 15 14  0  0  0  0  0  0  0  0999 V2000
   -2.1884   -0.2125   -0.6187 C   0  0  0  0  0  0  0  0  0  0  0  0
   -0.7670   -0.2558   -0.7420 C   0  0  0  0  0  0  0  0  0  0  0  0
   -0.3514    0.8667   -0.1547 C   0  0  0  0  0  0  0  0  0  0  0  0
   -0.6809    1.9893    0.4847 C   0  0  0  0  0  0  0  0  0  0  0  0
   -2.1056    1.9463    0.5609 C   0  0  0  0  0  0  0  0  0  0  0  0
   -2.8065    0.8670    0.0173 C   0  0  0  0  0  0  0  0  0  0  0  0
   -2.7731   -1.0376   -1.0308 H   0  0  0  0  0  0  0  0  0  0  0  0
   -0.2048   -1.0550   -1.2202 H   0  0  0  0  0  0  0  0  0  0  0  0
   -0.0573    2.7885    0.8799 H   0  0  0  0  0  0  0  0  0  0  0  0
   -2.6269    2.7715    1.0504 H   0  0  0  0  0  0  0  0  0  0  0  0
   -4.2933    0.8671    0.1214 N   0  0  0  0  0  0  0  0  0  0  0  0
   -4.8704   -0.0928   -0.3637 O   0  0  0  0  0  0  0  0  0  0  0  0
   -4.7968    1.8260    0.6845 O   0  0  0  0  0  0  0  0  0  0  0  0
    2.5165    0.8665   -0.3554 N   0  0  0  0  0  0  0  0  0  0  0  0
    3.6173    0.8664   -0.4323 N   0  0  0  0  0  0  0  0  0  0  0  0
  1  6  1  0  0  0  0
  2  1  2  0  0  0  0
  2  3  1  0  0  0  0
  3  4  2  0  0  0  0
  4  5  1  0  0  0  0
  4  9  1  0  0  0  0
  5 10  1  0  0  0  0
  6 11  1  0  0  0  0
  6  5  2  0  0  0  0
  7  1  1  0  0  0  0
  8  2  1  0  0  0  0
 11 13  2  0  0  0  0
 12 11  2  0  0  0  0
 15 14  3  0  0  0  0
M  RAD  1   3   2
M  END
