Coordinates from ORCA-job p-NO2-Ph-N2+-B3LYPG-aug-cc-pVDZ-scan-d09-49-n400
 OpenBabel09291715233D

 15 14  0  0  0  0  0  0  0  0999 V2000
   -2.2196   -0.2126   -0.6166 C   0  0  0  0  0  0  0  0  0  0  0  0
   -0.7969   -0.2568   -0.7405 C   0  0  0  0  0  0  0  0  0  0  0  0
   -0.3904    0.8667   -0.1520 C   0  0  0  0  0  0  0  0  0  0  0  0
   -0.7107    1.9903    0.4873 C   0  0  0  0  0  0  0  0  0  0  0  0
   -2.1367    1.9465    0.5631 C   0  0  0  0  0  0  0  0  0  0  0  0
   -2.8378    0.8670    0.0194 C   0  0  0  0  0  0  0  0  0  0  0  0
   -2.8037   -1.0382   -1.0290 H   0  0  0  0  0  0  0  0  0  0  0  0
   -0.2328   -1.0553   -1.2184 H   0  0  0  0  0  0  0  0  0  0  0  0
   -0.0853    2.7887    0.8819 H   0  0  0  0  0  0  0  0  0  0  0  0
   -2.6574    2.7721    1.0528 H   0  0  0  0  0  0  0  0  0  0  0  0
   -4.3244    0.8672    0.1235 N   0  0  0  0  0  0  0  0  0  0  0  0
   -4.9012   -0.0930   -0.3615 O   0  0  0  0  0  0  0  0  0  0  0  0
   -4.8275    1.8260    0.6868 O   0  0  0  0  0  0  0  0  0  0  0  0
    2.7175    0.8665   -0.3694 N   0  0  0  0  0  0  0  0  0  0  0  0
    3.8185    0.8664   -0.4463 N   0  0  0  0  0  0  0  0  0  0  0  0
  1  6  1  0  0  0  0
  2  1  2  0  0  0  0
  2  3  1  0  0  0  0
  3  4  2  0  0  0  0
  4  5  1  0  0  0  0
  4  9  1  0  0  0  0
  5 10  1  0  0  0  0
  6 11  1  0  0  0  0
  6  5  2  0  0  0  0
  7  1  1  0  0  0  0
  8  2  1  0  0  0  0
 11 13  2  0  0  0  0
 12 11  2  0  0  0  0
 15 14  3  0  0  0  0
M  RAD  1   3   2
M  END
