Coordinates from ORCA-job p-NO2-Ph-N2+-B3LYPG-aug-cc-pVDZ-scan-d09-49-n400
 OpenBabel09291715233D

 15 14  0  0  0  0  0  0  0  0999 V2000
   -2.2700   -0.2127   -0.6129 C   0  0  0  0  0  0  0  0  0  0  0  0
   -0.8465   -0.2577   -0.7374 C   0  0  0  0  0  0  0  0  0  0  0  0
   -0.4442    0.8666   -0.1483 C   0  0  0  0  0  0  0  0  0  0  0  0
   -0.7601    1.9911    0.4913 C   0  0  0  0  0  0  0  0  0  0  0  0
   -2.1870    1.9463    0.5668 C   0  0  0  0  0  0  0  0  0  0  0  0
   -2.8880    0.8668    0.0232 C   0  0  0  0  0  0  0  0  0  0  0  0
   -2.8536   -1.0387   -1.0254 H   0  0  0  0  0  0  0  0  0  0  0  0
   -0.2824   -1.0565   -1.2156 H   0  0  0  0  0  0  0  0  0  0  0  0
   -0.1346    2.7897    0.8859 H   0  0  0  0  0  0  0  0  0  0  0  0
   -2.7071    2.7723    1.0568 H   0  0  0  0  0  0  0  0  0  0  0  0
   -4.3746    0.8669    0.1276 N   0  0  0  0  0  0  0  0  0  0  0  0
   -4.9513   -0.0926   -0.3588 O   0  0  0  0  0  0  0  0  0  0  0  0
   -4.8775    1.8266    0.6896 O   0  0  0  0  0  0  0  0  0  0  0  0
    3.0437    0.8667   -0.3925 N   0  0  0  0  0  0  0  0  0  0  0  0
    4.1448    0.8667   -0.4693 N   0  0  0  0  0  0  0  0  0  0  0  0
  1  6  1  0  0  0  0
  2  1  2  0  0  0  0
  2  3  1  0  0  0  0
  3  4  2  0  0  0  0
  4  5  1  0  0  0  0
  4  9  1  0  0  0  0
  5 10  1  0  0  0  0
  6 11  1  0  0  0  0
  6  5  2  0  0  0  0
  7  1  1  0  0  0  0
  8  2  1  0  0  0  0
 11 13  2  0  0  0  0
 12 11  2  0  0  0  0
 15 14  3  0  0  0  0
M  RAD  1   3   2
M  END
