Coordinates from ORCA-job p-NO2-Ph-N2+-B3LYPG-aug-cc-pVDZ-scan-d09-49-n400
 OpenBabel09291715233D

 15 15  0  0  0  0  0  0  0  0999 V2000
   -2.0696   -0.2128   -0.6270 C   0  0  0  0  0  0  0  0  0  0  0  0
   -0.6678   -0.2409   -0.7406 C   0  0  0  0  0  0  0  0  0  0  0  0
   -0.1059    0.8667   -0.1718 C   0  0  0  0  0  0  0  0  0  0  0  0
   -0.5828    1.9744    0.4698 C   0  0  0  0  0  0  0  0  0  0  0  0
   -1.9868    1.9465    0.5528 C   0  0  0  0  0  0  0  0  0  0  0  0
   -2.6855    0.8669    0.0089 C   0  0  0  0  0  0  0  0  0  0  0  0
   -2.6695   -1.0268   -1.0320 H   0  0  0  0  0  0  0  0  0  0  0  0
   -0.1261   -1.0505   -1.2230 H   0  0  0  0  0  0  0  0  0  0  0  0
    0.0209    2.7839    0.8720 H   0  0  0  0  0  0  0  0  0  0  0  0
   -2.5242    2.7606    1.0374 H   0  0  0  0  0  0  0  0  0  0  0  0
   -4.1758    0.8670    0.1134 N   0  0  0  0  0  0  0  0  0  0  0  0
   -4.7564   -0.0914   -0.3717 O   0  0  0  0  0  0  0  0  0  0  0  0
   -4.6829    1.8251    0.6753 O   0  0  0  0  0  0  0  0  0  0  0  0
    1.7619    0.8665   -0.3026 N   0  0  0  0  0  0  0  0  0  0  0  0
    2.8619    0.8664   -0.3797 N   0  0  0  0  0  0  0  0  0  0  0  0
  1  6  1  0  0  0  0
  2  1  2  0  0  0  0
  2  3  1  0  0  0  0
  3  4  2  0  0  0  0
  4  5  1  0  0  0  0
  4  9  1  0  0  0  0
  5 10  1  0  0  0  0
  6 11  1  0  0  0  0
  6  5  2  0  0  0  0
  7  1  1  0  0  0  0
  8  2  1  0  0  0  0
 11 13  2  0  0  0  0
 12 11  2  0  0  0  0
 14  3  1  0  0  0  0
 15 14  1  0  0  0  0
M  RAD  2  14   2  15   3
M  END
