Coordinates from ORCA-job p-NO2-Ph-N2+-B3LYPG-aug-cc-pVDZ-scan-d09-49-n400
 OpenBabel09291715233D

 15 14  0  0  0  0  0  0  0  0999 V2000
   -2.0844   -0.2125   -0.6257 C   0  0  0  0  0  0  0  0  0  0  0  0
   -0.6779   -0.2451   -0.7422 C   0  0  0  0  0  0  0  0  0  0  0  0
   -0.1523    0.8667   -0.1685 C   0  0  0  0  0  0  0  0  0  0  0  0
   -0.5926    1.9785    0.4728 C   0  0  0  0  0  0  0  0  0  0  0  0
   -2.0016    1.9461    0.5537 C   0  0  0  0  0  0  0  0  0  0  0  0
   -2.7008    0.8668    0.0101 C   0  0  0  0  0  0  0  0  0  0  0  0
   -2.6805   -1.0293   -1.0324 H   0  0  0  0  0  0  0  0  0  0  0  0
   -0.1324   -1.0524   -1.2236 H   0  0  0  0  0  0  0  0  0  0  0  0
    0.0148    2.7857    0.8734 H   0  0  0  0  0  0  0  0  0  0  0  0
   -2.5351    2.7629    1.0396 H   0  0  0  0  0  0  0  0  0  0  0  0
   -4.1900    0.8669    0.1145 N   0  0  0  0  0  0  0  0  0  0  0  0
   -4.7701   -0.0915   -0.3711 O   0  0  0  0  0  0  0  0  0  0  0  0
   -4.6966    1.8255    0.6761 O   0  0  0  0  0  0  0  0  0  0  0  0
    1.8556    0.8666   -0.3093 N   0  0  0  0  0  0  0  0  0  0  0  0
    2.9555    0.8665   -0.3864 N   0  0  0  0  0  0  0  0  0  0  0  0
  1  6  1  0  0  0  0
  2  1  2  0  0  0  0
  2  3  1  0  0  0  0
  3  4  2  0  0  0  0
  4  5  1  0  0  0  0
  4  9  1  0  0  0  0
  5 10  1  0  0  0  0
  6 11  1  0  0  0  0
  6  5  2  0  0  0  0
  7  1  1  0  0  0  0
  8  2  1  0  0  0  0
 11 13  2  0  0  0  0
 12 11  2  0  0  0  0
 15 14  3  0  0  0  0
M  RAD  1   3   2
M  END
