Coordinates from ORCA-job p-NO2-Ph-N2+-B3LYPG-aug-cc-pVDZ-scan-d09-49-n400
 OpenBabel09291715233D

 15 15  0  0  0  0  0  0  0  0999 V2000
   -2.0191   -0.2140   -0.6312 C   0  0  0  0  0  0  0  0  0  0  0  0
   -0.6345   -0.2271   -0.7354 C   0  0  0  0  0  0  0  0  0  0  0  0
    0.0697    0.8666   -0.1841 C   0  0  0  0  0  0  0  0  0  0  0  0
   -0.5506    1.9606    0.4600 C   0  0  0  0  0  0  0  0  0  0  0  0
   -1.9362    1.9476    0.5499 C   0  0  0  0  0  0  0  0  0  0  0  0
   -2.6360    0.8669    0.0054 C   0  0  0  0  0  0  0  0  0  0  0  0
   -2.6255   -1.0233   -1.0332 H   0  0  0  0  0  0  0  0  0  0  0  0
   -0.1063   -1.0458   -1.2218 H   0  0  0  0  0  0  0  0  0  0  0  0
    0.0405    2.7791    0.8681 H   0  0  0  0  0  0  0  0  0  0  0  0
   -2.4805    2.7571    1.0324 H   0  0  0  0  0  0  0  0  0  0  0  0
   -4.1307    0.8670    0.1101 N   0  0  0  0  0  0  0  0  0  0  0  0
   -4.7096   -0.0918   -0.3752 O   0  0  0  0  0  0  0  0  0  0  0  0
   -4.6360    1.8256    0.6721 O   0  0  0  0  0  0  0  0  0  0  0  0
    1.4275    0.8665   -0.2791 N   0  0  0  0  0  0  0  0  0  0  0  0
    2.5387    0.8664   -0.3569 N   0  0  0  0  0  0  0  0  0  0  0  0
  1  6  1  0  0  0  0
  2  1  2  0  0  0  0
  2  3  1  0  0  0  0
  3  4  2  0  0  0  0
  4  5  1  0  0  0  0
  4  9  1  0  0  0  0
  5 10  1  0  0  0  0
  6 11  1  0  0  0  0
  6  5  2  0  0  0  0
  7  1  1  0  0  0  0
  8  2  1  0  0  0  0
 11 13  2  0  0  0  0
 12 11  2  0  0  0  0
 14  3  1  0  0  0  0
 15 14  1  0  0  0  0
M  RAD  2  14   2  15   3
M  END
