Coordinates from ORCA-job p-NO2-Ph-N2+-B3LYPG-aug-cc-pVDZ-scan-d09-49-n400
 OpenBabel09291715233D

 15 14  0  0  0  0  0  0  0  0999 V2000
   -2.2485   -0.2133   -0.6134 C   0  0  0  0  0  0  0  0  0  0  0  0
   -0.8254   -0.2574   -0.7382 C   0  0  0  0  0  0  0  0  0  0  0  0
   -0.4225    0.8665   -0.1495 C   0  0  0  0  0  0  0  0  0  0  0  0
   -0.7391    1.9903    0.4899 C   0  0  0  0  0  0  0  0  0  0  0  0
   -2.1656    1.9458    0.5663 C   0  0  0  0  0  0  0  0  0  0  0  0
   -2.8667    0.8661    0.0230 C   0  0  0  0  0  0  0  0  0  0  0  0
   -2.8321   -1.0393   -1.0258 H   0  0  0  0  0  0  0  0  0  0  0  0
   -0.2609   -1.0557   -1.2164 H   0  0  0  0  0  0  0  0  0  0  0  0
   -0.1133    2.7889    0.8842 H   0  0  0  0  0  0  0  0  0  0  0  0
   -2.6858    2.7717    1.0565 H   0  0  0  0  0  0  0  0  0  0  0  0
   -4.3533    0.8658    0.1281 N   0  0  0  0  0  0  0  0  0  0  0  0
   -4.9304   -0.0908   -0.3635 O   0  0  0  0  0  0  0  0  0  0  0  0
   -4.8566    1.8283    0.6848 O   0  0  0  0  0  0  0  0  0  0  0  0
    2.9054    0.8672   -0.3838 N   0  0  0  0  0  0  0  0  0  0  0  0
    4.0064    0.8674   -0.4611 N   0  0  0  0  0  0  0  0  0  0  0  0
  1  6  1  0  0  0  0
  2  1  2  0  0  0  0
  2  3  1  0  0  0  0
  3  4  2  0  0  0  0
  4  5  1  0  0  0  0
  4  9  1  0  0  0  0
  5 10  1  0  0  0  0
  6 11  1  0  0  0  0
  6  5  2  0  0  0  0
  7  1  1  0  0  0  0
  8  2  1  0  0  0  0
 11 13  2  0  0  0  0
 12 11  2  0  0  0  0
 15 14  3  0  0  0  0
M  RAD  1   3   2
M  END
