Coordinates from ORCA-job p-NO2-Ph-N2+-B3LYPG-aug-cc-pVDZ-scan-d09-49-n400
 OpenBabel09291715233D

 15 14  0  0  0  0  0  0  0  0999 V2000
   -2.1666   -0.2126   -0.6200 C   0  0  0  0  0  0  0  0  0  0  0  0
   -0.7465   -0.2550   -0.7428 C   0  0  0  0  0  0  0  0  0  0  0  0
   -0.3216    0.8667   -0.1568 C   0  0  0  0  0  0  0  0  0  0  0  0
   -0.6604    1.9884    0.4829 C   0  0  0  0  0  0  0  0  0  0  0  0
   -2.0837    1.9462    0.5595 C   0  0  0  0  0  0  0  0  0  0  0  0
   -2.7845    0.8668    0.0160 C   0  0  0  0  0  0  0  0  0  0  0  0
   -2.7522   -1.0370   -1.0316 H   0  0  0  0  0  0  0  0  0  0  0  0
   -0.1861   -1.0550   -1.2214 H   0  0  0  0  0  0  0  0  0  0  0  0
   -0.0386    2.7884    0.8785 H   0  0  0  0  0  0  0  0  0  0  0  0
   -2.6061    2.7706    1.0488 H   0  0  0  0  0  0  0  0  0  0  0  0
   -4.2714    0.8669    0.1203 N   0  0  0  0  0  0  0  0  0  0  0  0
   -4.8490   -0.0923   -0.3659 O   0  0  0  0  0  0  0  0  0  0  0  0
   -4.7753    1.8263    0.6821 O   0  0  0  0  0  0  0  0  0  0  0  0
    2.3763    0.8666   -0.3458 N   0  0  0  0  0  0  0  0  0  0  0  0
    3.4770    0.8665   -0.4229 N   0  0  0  0  0  0  0  0  0  0  0  0
  1  6  1  0  0  0  0
  2  1  2  0  0  0  0
  2  3  1  0  0  0  0
  3  4  2  0  0  0  0
  4  5  1  0  0  0  0
  4  9  1  0  0  0  0
  5 10  1  0  0  0  0
  6 11  1  0  0  0  0
  6  5  2  0  0  0  0
  7  1  1  0  0  0  0
  8  2  1  0  0  0  0
 11 13  2  0  0  0  0
 12 11  2  0  0  0  0
 15 14  3  0  0  0  0
M  RAD  1   3   2
M  END
