Coordinates from ORCA-job p-NO2-Ph-N2+-B3LYPG-aug-cc-pVDZ-scan-d09-49-n400
 OpenBabel09291715233D

 15 14  0  0  0  0  0  0  0  0999 V2000
   -2.2832   -0.2121   -0.6132 C   0  0  0  0  0  0  0  0  0  0  0  0
   -0.8596   -0.2572   -0.7369 C   0  0  0  0  0  0  0  0  0  0  0  0
   -0.4590    0.8668   -0.1477 C   0  0  0  0  0  0  0  0  0  0  0  0
   -0.7732    1.9911    0.4914 C   0  0  0  0  0  0  0  0  0  0  0  0
   -2.2002    1.9470    0.5665 C   0  0  0  0  0  0  0  0  0  0  0  0
   -2.9014    0.8677    0.0226 C   0  0  0  0  0  0  0  0  0  0  0  0
   -2.8664   -1.0381   -1.0262 H   0  0  0  0  0  0  0  0  0  0  0  0
   -0.2950   -1.0559   -1.2148 H   0  0  0  0  0  0  0  0  0  0  0  0
   -0.1472    2.7894    0.8863 H   0  0  0  0  0  0  0  0  0  0  0  0
   -2.7199    2.7734    1.0563 H   0  0  0  0  0  0  0  0  0  0  0  0
   -4.3881    0.8683    0.1261 N   0  0  0  0  0  0  0  0  0  0  0  0
   -4.9642   -0.0949   -0.3536 O   0  0  0  0  0  0  0  0  0  0  0  0
   -4.8904    1.8243    0.6948 O   0  0  0  0  0  0  0  0  0  0  0  0
    3.1291    0.8660   -0.3971 N   0  0  0  0  0  0  0  0  0  0  0  0
    4.2303    0.8658   -0.4735 N   0  0  0  0  0  0  0  0  0  0  0  0
  1  6  1  0  0  0  0
  2  1  2  0  0  0  0
  2  3  1  0  0  0  0
  3  4  2  0  0  0  0
  4  5  1  0  0  0  0
  4  9  1  0  0  0  0
  5 10  1  0  0  0  0
  6 11  1  0  0  0  0
  6  5  2  0  0  0  0
  7  1  1  0  0  0  0
  8  2  1  0  0  0  0
 11 13  2  0  0  0  0
 12 11  2  0  0  0  0
 15 14  3  0  0  0  0
M  RAD  1   3   2
M  END
