Coordinates from ORCA-job p-NO2-Ph-N2+-B3LYPG-aug-cc-pVDZ-scan-d09-49-n400
 OpenBabel09291715233D

 15 14  0  0  0  0  0  0  0  0999 V2000
   -2.3006   -0.2127   -0.6107 C   0  0  0  0  0  0  0  0  0  0  0  0
   -0.8771   -0.2580   -0.7354 C   0  0  0  0  0  0  0  0  0  0  0  0
   -0.4749    0.8666   -0.1462 C   0  0  0  0  0  0  0  0  0  0  0  0
   -0.7906    1.9912    0.4935 C   0  0  0  0  0  0  0  0  0  0  0  0
   -2.2176    1.9461    0.5689 C   0  0  0  0  0  0  0  0  0  0  0  0
   -2.9187    0.8668    0.0254 C   0  0  0  0  0  0  0  0  0  0  0  0
   -2.8840   -1.0388   -1.0233 H   0  0  0  0  0  0  0  0  0  0  0  0
   -0.3136   -1.0572   -1.2138 H   0  0  0  0  0  0  0  0  0  0  0  0
   -0.1656    2.7903    0.8884 H   0  0  0  0  0  0  0  0  0  0  0  0
   -2.7375    2.7724    1.0590 H   0  0  0  0  0  0  0  0  0  0  0  0
   -4.4054    0.8669    0.1298 N   0  0  0  0  0  0  0  0  0  0  0  0
   -4.9819   -0.0925   -0.3566 O   0  0  0  0  0  0  0  0  0  0  0  0
   -4.9081    1.8267    0.6918 O   0  0  0  0  0  0  0  0  0  0  0  0
    3.2431    0.8668   -0.4064 N   0  0  0  0  0  0  0  0  0  0  0  0
    4.3443    0.8669   -0.4832 N   0  0  0  0  0  0  0  0  0  0  0  0
  1  6  1  0  0  0  0
  2  1  2  0  0  0  0
  2  3  1  0  0  0  0
  3  4  2  0  0  0  0
  4  5  1  0  0  0  0
  4  9  1  0  0  0  0
  5 10  1  0  0  0  0
  6 11  1  0  0  0  0
  6  5  2  0  0  0  0
  7  1  1  0  0  0  0
  8  2  1  0  0  0  0
 11 13  2  0  0  0  0
 12 11  2  0  0  0  0
 15 14  3  0  0  0  0
M  RAD  1   3   2
M  END
