Coordinates from ORCA-job p-NO2-Ph-N2+-B3LYPG-aug-cc-pVDZ-scan-d09-49-n400
 OpenBabel09291715233D

 15 15  0  0  0  0  0  0  0  0999 V2000
   -2.0044   -0.2139   -0.6321 C   0  0  0  0  0  0  0  0  0  0  0  0
   -0.6247   -0.2259   -0.7353 C   0  0  0  0  0  0  0  0  0  0  0  0
    0.1219    0.8666   -0.1877 C   0  0  0  0  0  0  0  0  0  0  0  0
   -0.5409    1.9593    0.4586 C   0  0  0  0  0  0  0  0  0  0  0  0
   -1.9214    1.9475    0.5488 C   0  0  0  0  0  0  0  0  0  0  0  0
   -2.6226    0.8668    0.0046 C   0  0  0  0  0  0  0  0  0  0  0  0
   -2.6098   -1.0240   -1.0345 H   0  0  0  0  0  0  0  0  0  0  0  0
   -0.0968   -1.0454   -1.2223 H   0  0  0  0  0  0  0  0  0  0  0  0
    0.0499    2.7787    0.8672 H   0  0  0  0  0  0  0  0  0  0  0  0
   -2.4648    2.7577    1.0317 H   0  0  0  0  0  0  0  0  0  0  0  0
   -4.1180    0.8670    0.1094 N   0  0  0  0  0  0  0  0  0  0  0  0
   -4.6953   -0.0922   -0.3766 O   0  0  0  0  0  0  0  0  0  0  0  0
   -4.6217    1.8262    0.6711 O   0  0  0  0  0  0  0  0  0  0  0  0
    1.3197    0.8665   -0.2716 N   0  0  0  0  0  0  0  0  0  0  0  0
    2.4404    0.8665   -0.3501 N   0  0  0  0  0  0  0  0  0  0  0  0
  1  6  1  0  0  0  0
  2  1  2  0  0  0  0
  2  3  1  0  0  0  0
  3  4  2  0  0  0  0
  4  5  1  0  0  0  0
  4  9  1  0  0  0  0
  5 10  1  0  0  0  0
  6 11  1  0  0  0  0
  6  5  2  0  0  0  0
  7  1  1  0  0  0  0
  8  2  1  0  0  0  0
 11 13  2  0  0  0  0
 12 11  2  0  0  0  0
 14  3  1  0  0  0  0
 15 14  1  0  0  0  0
M  RAD  2  14   2  15   3
M  END
