Coordinates from ORCA-job p-NO2-Ph-N2+-B3LYPG-aug-cc-pVDZ-scan-d09-49-n400
 OpenBabel09291715233D

 15 15  0  0  0  0  0  0  0  0999 V2000
   -2.0551   -0.2138   -0.6271 C   0  0  0  0  0  0  0  0  0  0  0  0
   -0.6583   -0.2366   -0.7385 C   0  0  0  0  0  0  0  0  0  0  0  0
   -0.0577    0.8667   -0.1752 C   0  0  0  0  0  0  0  0  0  0  0  0
   -0.5736    1.9697    0.4670 C   0  0  0  0  0  0  0  0  0  0  0  0
   -1.9723    1.9462    0.5531 C   0  0  0  0  0  0  0  0  0  0  0  0
   -2.6708    0.8660    0.0094 C   0  0  0  0  0  0  0  0  0  0  0  0
   -2.6584   -1.0256   -1.0302 H   0  0  0  0  0  0  0  0  0  0  0  0
   -0.1206   -1.0485   -1.2224 H   0  0  0  0  0  0  0  0  0  0  0  0
    0.0263    2.7819    0.8705 H   0  0  0  0  0  0  0  0  0  0  0  0
   -2.5132    2.7578    1.0370 H   0  0  0  0  0  0  0  0  0  0  0  0
   -4.1623    0.8656    0.1150 N   0  0  0  0  0  0  0  0  0  0  0  0
   -4.7435   -0.0893   -0.3762 O   0  0  0  0  0  0  0  0  0  0  0  0
   -4.6700    1.8270    0.6707 O   0  0  0  0  0  0  0  0  0  0  0  0
    1.6701    0.8671   -0.2972 N   0  0  0  0  0  0  0  0  0  0  0  0
    2.7709    0.8673   -0.3749 N   0  0  0  0  0  0  0  0  0  0  0  0
  1  6  1  0  0  0  0
  2  1  2  0  0  0  0
  2  3  1  0  0  0  0
  3  4  2  0  0  0  0
  4  5  1  0  0  0  0
  4  9  1  0  0  0  0
  5 10  1  0  0  0  0
  6 11  1  0  0  0  0
  6  5  2  0  0  0  0
  7  1  1  0  0  0  0
  8  2  1  0  0  0  0
 11 13  2  0  0  0  0
 12 11  2  0  0  0  0
 14  3  1  0  0  0  0
 15 14  1  0  0  0  0
M  RAD  2  14   2  15   3
M  END
