Coordinates from ORCA-job p-NO2-Ph-N2+-B3LYPG-aug-cc-pVDZ-scan-d09-49-n400
 OpenBabel09291715233D

 15 15  0  0  0  0  0  0  0  0999 V2000
   -2.0063   -0.2142   -0.6314 C   0  0  0  0  0  0  0  0  0  0  0  0
   -0.6262   -0.2259   -0.7351 C   0  0  0  0  0  0  0  0  0  0  0  0
    0.1163    0.8667   -0.1874 C   0  0  0  0  0  0  0  0  0  0  0  0
   -0.5424    1.9591    0.4588 C   0  0  0  0  0  0  0  0  0  0  0  0
   -1.9234    1.9472    0.5495 C   0  0  0  0  0  0  0  0  0  0  0  0
   -2.6244    0.8664    0.0055 C   0  0  0  0  0  0  0  0  0  0  0  0
   -2.6118   -1.0244   -1.0336 H   0  0  0  0  0  0  0  0  0  0  0  0
   -0.0984   -1.0453   -1.2222 H   0  0  0  0  0  0  0  0  0  0  0  0
    0.0483    2.7786    0.8672 H   0  0  0  0  0  0  0  0  0  0  0  0
   -2.4667    2.7572    1.0326 H   0  0  0  0  0  0  0  0  0  0  0  0
   -4.1198    0.8662    0.1109 N   0  0  0  0  0  0  0  0  0  0  0  0
   -4.6974   -0.0911   -0.3783 O   0  0  0  0  0  0  0  0  0  0  0  0
   -4.6238    1.8272    0.6694 O   0  0  0  0  0  0  0  0  0  0  0  0
    1.3341    0.8668   -0.2731 N   0  0  0  0  0  0  0  0  0  0  0  0
    2.4534    0.8669   -0.3519 N   0  0  0  0  0  0  0  0  0  0  0  0
  1  6  1  0  0  0  0
  2  1  2  0  0  0  0
  2  3  1  0  0  0  0
  3  4  2  0  0  0  0
  4  5  1  0  0  0  0
  4  9  1  0  0  0  0
  5 10  1  0  0  0  0
  6 11  1  0  0  0  0
  6  5  2  0  0  0  0
  7  1  1  0  0  0  0
  8  2  1  0  0  0  0
 11 13  2  0  0  0  0
 12 11  2  0  0  0  0
 14  3  1  0  0  0  0
 15 14  1  0  0  0  0
M  RAD  2  14   2  15   3
M  END
