1a-A+-RB3LYP-6-31G_dp.log
 OpenBabel08221816433D
Gaussian home/ubuntu/g09/g09 # opt freq rb3lyp/6-31G(d,p)
 13 13  0  0  0  0  0  0  0  0999 V2000
    1.4824    1.2235    0.0000 C   0  0  0  0  0  0  0  0  0  0  0  0
    0.0966    1.2463   -0.0000 C   0  0  0  0  0  0  0  0  0  0  0  0
   -0.5645   -0.0001   -0.0000 C   0  0  0  0  0  0  0  0  0  0  0  0
    0.0967   -1.2464   -0.0000 C   0  0  0  0  0  0  0  0  0  0  0  0
    1.4826   -1.2234   -0.0000 C   0  0  0  0  0  0  0  0  0  0  0  0
    2.1685    0.0001    0.0000 C   0  0  0  0  0  0  0  0  0  0  0  0
    2.0316    2.1584    0.0000 H   0  0  0  0  0  0  0  0  0  0  0  0
   -1.9396   -0.0002    0.0000 N   0  0  0  0  0  0  0  0  0  0  0  0
   -3.0550    0.0001    0.0000 N   0  0  0  0  0  0  0  0  0  0  0  0
    3.2537    0.0001    0.0000 H   0  0  0  0  0  0  0  0  0  0  0  0
    2.0318   -2.1582    0.0000 H   0  0  0  0  0  0  0  0  0  0  0  0
   -0.4639   -2.1745   -0.0000 H   0  0  0  0  0  0  0  0  0  0  0  0
   -0.4641    2.1743    0.0000 H   0  0  0  0  0  0  0  0  0  0  0  0
  1  6  2  0  0  0  0
  1  7  1  0  0  0  0
  2  3  2  0  0  0  0
  2 13  1  0  0  0  0
  2  1  1  0  0  0  0
  3  8  1  0  0  0  0
  4  3  1  0  0  0  0
  4  5  2  0  0  0  0
  5  6  1  0  0  0  0
  5 11  1  0  0  0  0
  6 10  1  0  0  0  0
  8  9  1  0  0  0  0
 12  4  1  0  0  0  0
M  RAD  2   8   2   9   3
M  END
