1a-G+-RB3LYP-6-31G_dp.log
 OpenBabel08221816433D
Gaussian home/ubuntu/g09/g09 # opt freq rb3lyp/6-31G(d,p)
 23 24  0  0  0  0  0  0  0  0999 V2000
   -2.2708    0.9485    0.0002 C   0  0  0  0  0  0  0  0  0  0  0  0
   -1.7458   -0.3997    0.0001 C   0  0  0  0  0  0  0  0  0  0  0  0
   -2.8602   -1.1235   -0.0001 C   0  0  0  0  0  0  0  0  0  0  0  0
   -4.1998   -1.0576   -0.0002 C   0  0  0  0  0  0  0  0  0  0  0  0
   -4.6020    0.3024   -0.0000 C   0  0  0  0  0  0  0  0  0  0  0  0
   -3.6102    1.2916    0.0002 C   0  0  0  0  0  0  0  0  0  0  0  0
   -1.4370    1.6610    0.0002 H   0  0  0  0  0  0  0  0  0  0  0  0
   -3.8872    2.3404    0.0003 H   0  0  0  0  0  0  0  0  0  0  0  0
   -5.6631    0.5315    0.0000 H   0  0  0  0  0  0  0  0  0  0  0  0
   -4.8893   -1.8945   -0.0003 H   0  0  0  0  0  0  0  0  0  0  0  0
   -0.3664   -0.6968   -0.0000 N   0  0  0  0  0  0  0  0  0  0  0  0
    0.3865    0.3048    0.0000 N   0  0  0  0  0  0  0  0  0  0  0  0
    1.7606    0.1025   -0.0000 C   0  0  0  0  0  0  0  0  0  0  0  0
    2.5372    1.2789   -0.0001 C   0  0  0  0  0  0  0  0  0  0  0  0
    2.3748   -1.1717    0.0001 C   0  0  0  0  0  0  0  0  0  0  0  0
    3.9230    1.1858   -0.0002 C   0  0  0  0  0  0  0  0  0  0  0  0
    2.0317    2.2385   -0.0003 H   0  0  0  0  0  0  0  0  0  0  0  0
    3.7563   -1.2478    0.0002 C   0  0  0  0  0  0  0  0  0  0  0  0
    1.7600   -2.0644    0.0002 H   0  0  0  0  0  0  0  0  0  0  0  0
    4.5296   -0.0738   -0.0000 C   0  0  0  0  0  0  0  0  0  0  0  0
    4.5299    2.0845   -0.0003 H   0  0  0  0  0  0  0  0  0  0  0  0
    4.2455   -2.2161    0.0002 H   0  0  0  0  0  0  0  0  0  0  0  0
    5.6125   -0.1485   -0.0000 H   0  0  0  0  0  0  0  0  0  0  0  0
  2  1  2  0  0  0  0
  3  2  1  0  0  0  0
  4  3  2  0  0  0  0
  4  5  1  0  0  0  0
  5  9  1  0  0  0  0
  5  6  2  0  0  0  0
  6  1  1  0  0  0  0
  6  8  1  0  0  0  0
  7  1  1  0  0  0  0
 10  4  1  0  0  0  0
 11 12  1  0  0  0  0
 11  2  1  0  0  0  0
 13 12  1  0  0  0  0
 13 15  2  0  0  0  0
 14 13  1  0  0  0  0
 15 18  1  0  0  0  0
 15 19  1  0  0  0  0
 16 14  2  0  0  0  0
 16 20  1  0  0  0  0
 17 14  1  0  0  0  0
 18 22  1  0  0  0  0
 20 18  2  0  0  0  0
 21 16  1  0  0  0  0
 23 20  1  0  0  0  0
M  RAD  3   3   2  11   2  12   2
M  END
