1a-P2+-RB3LYP-6-31G_dp.log
 OpenBabel08171811343D
Gaussian home/ubuntu/g09/g09 # opt freq rb3lyp/6-31G(d,p)
 43 46  0  0  0  0  0  0  0  0999 V2000
   -0.1171    2.7594   -1.4057 C   0  0  0  0  0  0  0  0  0  0  0  0
    0.1001    1.7398   -0.4656 C   0  0  0  0  0  0  0  0  0  0  0  0
    1.3776    1.5418    0.0989 C   0  0  0  0  0  0  0  0  0  0  0  0
    2.4142    2.4013   -0.2895 C   0  0  0  0  0  0  0  0  0  0  0  0
    2.2000    3.4085   -1.2300 C   0  0  0  0  0  0  0  0  0  0  0  0
    0.9300    3.5893   -1.7856 C   0  0  0  0  0  0  0  0  0  0  0  0
   -1.1112    2.8764   -1.8216 H   0  0  0  0  0  0  0  0  0  0  0  0
    0.7591    4.3761   -2.5134 H   0  0  0  0  0  0  0  0  0  0  0  0
    3.0214    4.0539   -1.5244 H   0  0  0  0  0  0  0  0  0  0  0  0
    3.3957    2.2789    0.1579 H   0  0  0  0  0  0  0  0  0  0  0  0
   -0.9206    0.8264   -0.0952 N   0  0  0  0  0  0  0  0  0  0  0  0
   -2.1023    1.2267   -0.2318 N   0  0  0  0  0  0  0  0  0  0  0  0
   -3.1358    0.3178    0.0656 C   0  0  0  0  0  0  0  0  0  0  0  0
   -4.4253    0.7569   -0.2733 C   0  0  0  0  0  0  0  0  0  0  0  0
   -2.9517   -0.9356    0.6811 C   0  0  0  0  0  0  0  0  0  0  0  0
   -5.5249   -0.0611   -0.0279 C   0  0  0  0  0  0  0  0  0  0  0  0
   -4.5358    1.7346   -0.7301 H   0  0  0  0  0  0  0  0  0  0  0  0
   -4.0559   -1.7378    0.9334 C   0  0  0  0  0  0  0  0  0  0  0  0
   -1.9568   -1.2457    0.9795 H   0  0  0  0  0  0  0  0  0  0  0  0
   -5.3411   -1.3072    0.5739 C   0  0  0  0  0  0  0  0  0  0  0  0
   -6.5212    0.2743   -0.2961 H   0  0  0  0  0  0  0  0  0  0  0  0
   -3.9257   -2.6988    1.4212 H   0  0  0  0  0  0  0  0  0  0  0  0
   -6.1978   -1.9421    0.7770 H   0  0  0  0  0  0  0  0  0  0  0  0
    1.6436    0.5542    1.1971 C   0  0  0  0  0  0  0  0  0  0  0  0
    1.6941    1.0426    2.5120 C   0  0  0  0  0  0  0  0  0  0  0  0
    1.9682   -0.8053    0.9941 C   0  0  0  0  0  0  0  0  0  0  0  0
    2.0415    0.2241    3.5846 C   0  0  0  0  0  0  0  0  0  0  0  0
    1.4574    2.0873    2.6848 H   0  0  0  0  0  0  0  0  0  0  0  0
    2.3342   -1.6264    2.0745 C   0  0  0  0  0  0  0  0  0  0  0  0
    2.3710   -1.1147    3.3661 C   0  0  0  0  0  0  0  0  0  0  0  0
    2.0641    0.6348    4.5889 H   0  0  0  0  0  0  0  0  0  0  0  0
    2.5768   -2.6694    1.8953 H   0  0  0  0  0  0  0  0  0  0  0  0
    2.6569   -1.7552    4.1938 H   0  0  0  0  0  0  0  0  0  0  0  0
    1.9224   -1.4223   -0.3438 C   0  0  0  0  0  0  0  0  0  0  0  0
    2.7025   -2.2430   -1.0413 C   0  0  0  0  0  0  0  0  0  0  0  0
    0.7616   -1.3909   -1.2213 C   0  0  0  0  0  0  0  0  0  0  0  0
    2.8504   -2.9601   -2.1672 C   0  0  0  0  0  0  0  0  0  0  0  0
    0.6427   -2.0320   -2.4465 C   0  0  0  0  0  0  0  0  0  0  0  0
   -0.0673   -0.8242   -0.7533 H   0  0  0  0  0  0  0  0  0  0  0  0
    1.6748   -2.8321   -2.9469 C   0  0  0  0  0  0  0  0  0  0  0  0
    3.7338   -3.5073   -2.4745 H   0  0  0  0  0  0  0  0  0  0  0  0
   -0.2783   -1.9177   -3.0078 H   0  0  0  0  0  0  0  0  0  0  0  0
    1.6253   -3.3320   -3.9093 H   0  0  0  0  0  0  0  0  0  0  0  0
  1  2  1  0  0  0  0
  2 11  1  0  0  0  0
  2  3  2  0  0  0  0
  3 24  1  0  0  0  0
  4  3  1  0  0  0  0
  4 10  1  0  0  0  0
  5  4  2  0  0  0  0
  6  1  2  0  0  0  0
  6  5  1  0  0  0  0
  7  1  1  0  0  0  0
  8  6  1  0  0  0  0
  9  5  1  0  0  0  0
 12 11  2  0  0  0  0
 12 13  1  0  0  0  0
 13 15  2  0  0  0  0
 14 16  2  0  0  0  0
 14 13  1  0  0  0  0
 15 18  1  0  0  0  0
 15 19  1  0  0  0  0
 16 20  1  0  0  0  0
 17 14  1  0  0  0  0
 18 22  1  0  0  0  0
 20 23  1  0  0  0  0
 20 18  2  0  0  0  0
 21 16  1  0  0  0  0
 24 25  1  0  0  0  0
 25 28  1  0  0  0  0
 25 27  2  0  0  0  0
 26 24  2  0  0  0  0
 26 29  1  0  0  0  0
 27 31  1  0  0  0  0
 29 30  2  0  0  0  0
 30 27  1  0  0  0  0
 30 33  1  0  0  0  0
 32 29  1  0  0  0  0
 34 26  1  0  0  0  0
 35 34  1  0  0  0  0
 36 39  1  0  0  0  0
 36 34  2  0  0  0  0
 37 35  2  0  0  0  0
 38 36  1  0  0  0  0
 40 38  2  0  0  0  0
 40 37  1  0  0  0  0
 41 37  1  0  0  0  0
 42 38  1  0  0  0  0
 43 40  1  0  0  0  0
M  RAD  1  35   2
M  END
