1f-RB3LYP-6-31G_dp.log
 OpenBabel08221816433D
Gaussian home/ubuntu/g09/g09 # opt freq rb3lyp/6-31G(d,p)
 24 23  0  0  0  0  0  0  0  0999 V2000
    1.3464    1.5091   -0.3782 C   0  0  0  0  0  0  0  0  0  0  0  0
    1.8724    0.2218   -0.2297 C   0  0  0  0  0  0  0  0  0  0  0  0
    3.2439   -0.0409   -0.0256 C   0  0  0  0  0  0  0  0  0  0  0  0
    4.0986    1.0566    0.0478 C   0  0  0  0  0  0  0  0  0  0  0  0
    3.5999    2.3563   -0.0920 C   0  0  0  0  0  0  0  0  0  0  0  0
    2.2400    2.5783   -0.3066 C   0  0  0  0  0  0  0  0  0  0  0  0
    0.2746    1.6328   -0.5481 H   0  0  0  0  0  0  0  0  0  0  0  0
    5.1549    0.8850    0.2147 H   0  0  0  0  0  0  0  0  0  0  0  0
    4.2830    3.1973   -0.0326 H   0  0  0  0  0  0  0  0  0  0  0  0
    1.8582    3.5878   -0.4153 H   0  0  0  0  0  0  0  0  0  0  0  0
    0.9631   -0.8317   -0.3131 N   0  0  0  0  0  0  0  0  0  0  0  0
    0.0258   -1.4439   -0.2715 N   0  0  0  0  0  0  0  0  0  0  0  0
   -2.2363    0.6156    0.3886 S   0  0  0  0  0  0  0  0  0  0  0  0
   -1.3200   -0.2895    1.1716 O   0  0  0  0  0  0  0  0  0  0  0  0
   -2.9325    1.6211    1.1964 O   0  0  0  0  0  0  0  0  0  0  0  0
   -1.5966    1.0858   -0.8721 O   0  0  0  0  0  0  0  0  0  0  0  0
   -3.5577   -0.5458   -0.2146 C   0  0  0  0  0  0  0  0  0  0  0  0
   -4.2145   -1.0907    0.8157 F   0  0  0  0  0  0  0  0  0  0  0  0
   -3.0053   -1.5378   -0.9375 F   0  0  0  0  0  0  0  0  0  0  0  0
   -4.4357    0.1021   -0.9894 F   0  0  0  0  0  0  0  0  0  0  0  0
    3.7218   -1.4450    0.1116 C   0  0  0  0  0  0  0  0  0  0  0  0
    2.9890   -2.4109    0.0552 O   0  0  0  0  0  0  0  0  0  0  0  0
    5.0508   -1.5260    0.2990 O   0  0  0  0  0  0  0  0  0  0  0  0
    5.2678   -2.4706    0.3795 H   0  0  0  0  0  0  0  0  0  0  0  0
  1  6  2  0  0  0  0
  1  2  1  0  0  0  0
  2  3  2  0  0  0  0
  3  4  1  0  0  0  0
  3 21  1  0  0  0  0
  4  8  1  0  0  0  0
  5  9  1  0  0  0  0
  5  4  2  0  0  0  0
  6  5  1  0  0  0  0
  7  1  1  0  0  0  0
 10  6  1  0  0  0  0
 11 12  1  0  0  0  0
 11  2  1  0  0  0  0
 13 14  2  0  0  0  0
 13 15  1  0  0  0  0
 16 13  2  0  0  0  0
 17 13  1  0  0  0  0
 17 18  1  0  0  0  0
 19 17  1  0  0  0  0
 20 17  1  0  0  0  0
 21 23  1  0  0  0  0
 22 21  2  0  0  0  0
 23 24  1  0  0  0  0
M  RAD  3  11   2  12   3  15   2
M  END
