4-HOOC-Ph-N2-OTf.log
 OpenBabel08221814583D
Gaussian home/ubuntu/g09/g09 # opt freq rb3lyp/6-31G(d,p)
 24 23  0  0  0  0  0  0  0  0999 V2000
   -1.4314   -0.2581   -0.2125 C   0  0  0  0  0  0  0  0  0  0  0  0
   -1.3699    1.1322   -0.0410 C   0  0  0  0  0  0  0  0  0  0  0  0
   -2.4983    1.9558    0.1044 C   0  0  0  0  0  0  0  0  0  0  0  0
   -3.7417    1.3458    0.1015 C   0  0  0  0  0  0  0  0  0  0  0  0
   -3.8429   -0.0452   -0.0610 C   0  0  0  0  0  0  0  0  0  0  0  0
   -2.6976   -0.8358   -0.2218 C   0  0  0  0  0  0  0  0  0  0  0  0
   -0.5084   -0.8209   -0.3483 H   0  0  0  0  0  0  0  0  0  0  0  0
   -2.3886    3.0273    0.2252 H   0  0  0  0  0  0  0  0  0  0  0  0
   -4.6499    1.9252    0.2195 H   0  0  0  0  0  0  0  0  0  0  0  0
   -2.7949   -1.9069   -0.3508 H   0  0  0  0  0  0  0  0  0  0  0  0
   -0.1209    1.7424   -0.0205 N   0  0  0  0  0  0  0  0  0  0  0  0
    0.9535    2.0437    0.1079 N   0  0  0  0  0  0  0  0  0  0  0  0
    2.3589   -0.7013    0.4023 S   0  0  0  0  0  0  0  0  0  0  0  0
    1.9225    0.4235    1.3108 O   0  0  0  0  0  0  0  0  0  0  0  0
    2.7290   -1.9326    1.1032 O   0  0  0  0  0  0  0  0  0  0  0  0
    1.4594   -0.8311   -0.7762 O   0  0  0  0  0  0  0  0  0  0  0  0
    3.9346   -0.0461   -0.3372 C   0  0  0  0  0  0  0  0  0  0  0  0
    4.8525    0.1615    0.6125 F   0  0  0  0  0  0  0  0  0  0  0  0
    3.6957    1.1242   -0.9596 F   0  0  0  0  0  0  0  0  0  0  0  0
    4.4286   -0.9073   -1.2334 F   0  0  0  0  0  0  0  0  0  0  0  0
   -5.2207   -0.6342   -0.0573 C   0  0  0  0  0  0  0  0  0  0  0  0
   -6.2321    0.0209    0.0729 O   0  0  0  0  0  0  0  0  0  0  0  0
   -5.2128   -1.9724   -0.2138 O   0  0  0  0  0  0  0  0  0  0  0  0
   -6.1399   -2.2645   -0.1956 H   0  0  0  0  0  0  0  0  0  0  0  0
  1  2  1  0  0  0  0
  2 11  1  0  0  0  0
  2  3  2  0  0  0  0
  3  8  1  0  0  0  0
  4  3  1  0  0  0  0
  4  9  1  0  0  0  0
  5 21  1  0  0  0  0
  5  4  2  0  0  0  0
  6  1  2  0  0  0  0
  6  5  1  0  0  0  0
  7  1  1  0  0  0  0
 10  6  1  0  0  0  0
 11 12  1  0  0  0  0
 13 15  2  0  0  0  0
 13 14  1  0  0  0  0
 16 13  2  0  0  0  0
 17 13  1  0  0  0  0
 17 18  1  0  0  0  0
 19 17  1  0  0  0  0
 20 17  1  0  0  0  0
 21 22  2  0  0  0  0
 23 24  1  0  0  0  0
 23 21  1  0  0  0  0
M  RAD  3  11   2  12   3  14   2
M  END
