HOTf-RB3LYP-6-31G_dp.log
 OpenBabel08171811343D
Gaussian home/ubuntu/g09/g09 # opt freq rb3lyp/6-31G(d,p)
  9  8  0  0  0  0  0  0  0  0999 V2000
   -0.8529   -0.1473    0.0758 S   0  0  0  0  0  0  0  0  0  0  0  0
    1.0085    0.0097   -0.0014 C   0  0  0  0  0  0  0  0  0  0  0  0
   -1.2626    0.1823    1.4335 O   0  0  0  0  0  0  0  0  0  0  0  0
   -1.2150   -1.3762   -0.5979 O   0  0  0  0  0  0  0  0  0  0  0  0
    1.4249   -0.1557   -1.2521 F   0  0  0  0  0  0  0  0  0  0  0  0
    1.3623    1.2200    0.4352 F   0  0  0  0  0  0  0  0  0  0  0  0
    1.5417   -0.9237    0.7817 F   0  0  0  0  0  0  0  0  0  0  0  0
   -1.2546    1.0925   -0.9038 O   0  0  0  0  0  0  0  0  0  0  0  0
   -1.5078    1.8456   -0.3413 H   0  0  0  0  0  0  0  0  0  0  0  0
  1  3  2  0  0  0  0
  2  1  1  0  0  0  0
  2  6  1  0  0  0  0
  2  7  1  0  0  0  0
  4  1  2  0  0  0  0
  5  2  1  0  0  0  0
  8  9  1  0  0  0  0
  8  1  1  0  0  0  0
M  END
