Coordinates from ORCA-job p-CH3O-Ph-N2-X-OTf-B3LYPG-6-31G_dp-scan-d09-49-n400
 OpenBabel08281821483D

 25 24  0  0  0  0  0  0  0  0999 V2000
   -1.9574   -0.7735   -5.4809 C   0  0  0  0  0  0  0  0  0  0  0  0
   -0.8537    0.0517   -5.4885 C   0  0  0  0  0  0  0  0  0  0  0  0
   -1.0906    1.4423   -5.4253 C   0  0  0  0  0  0  0  0  0  0  0  0
   -2.3839    2.0005   -5.3621 C   0  0  0  0  0  0  0  0  0  0  0  0
   -3.4730    1.1513   -5.3665 C   0  0  0  0  0  0  0  0  0  0  0  0
   -3.2659   -0.2461   -5.4256 C   0  0  0  0  0  0  0  0  0  0  0  0
   -1.8355   -1.8497   -5.5341 H   0  0  0  0  0  0  0  0  0  0  0  0
    0.1629   -0.3481   -5.5636 H   0  0  0  0  0  0  0  0  0  0  0  0
   -2.5172    3.0762   -5.3188 H   0  0  0  0  0  0  0  0  0  0  0  0
   -4.4704    1.5692   -5.3261 H   0  0  0  0  0  0  0  0  0  0  0  0
   -0.0431    2.3281   -5.3937 N   0  0  0  0  0  0  0  0  0  0  0  0
    0.7159    3.1396   -5.2905 N   0  0  0  0  0  0  0  0  0  0  0  0
    2.3759    0.1159   -6.9989 S   0  0  0  0  0  0  0  0  0  0  0  0
    3.6382    1.0288   -5.9849 C   0  0  0  0  0  0  0  0  0  0  0  0
    3.1007   -0.3163   -8.1964 O   0  0  0  0  0  0  0  0  0  0  0  0
    1.3347    1.1694   -7.2075 O   0  0  0  0  0  0  0  0  0  0  0  0
    1.9183   -0.9555   -6.0703 O   0  0  0  0  0  0  0  0  0  0  0  0
    3.0407    1.5803   -4.8937 F   0  0  0  0  0  0  0  0  0  0  0  0
    4.6086    0.2178   -5.5507 F   0  0  0  0  0  0  0  0  0  0  0  0
    4.1956    2.0270   -6.6840 F   0  0  0  0  0  0  0  0  0  0  0  0
   -4.2529   -1.1494   -5.4338 O   0  0  0  0  0  0  0  0  0  0  0  0
   -5.6162   -0.7171   -5.3995 C   0  0  0  0  0  0  0  0  0  0  0  0
   -6.2115   -1.6286   -5.4244 H   0  0  0  0  0  0  0  0  0  0  0  0
   -5.8549   -0.0992   -6.2718 H   0  0  0  0  0  0  0  0  0  0  0  0
   -5.8311   -0.1645   -4.4783 H   0  0  0  0  0  0  0  0  0  0  0  0
  1  6  1  0  0  0  0
  2  1  2  0  0  0  0
  2  3  1  0  0  0  0
  3 11  1  0  0  0  0
  3  4  2  0  0  0  0
  4  9  1  0  0  0  0
  5  4  1  0  0  0  0
  5 10  1  0  0  0  0
  6  5  2  0  0  0  0
  7  1  1  0  0  0  0
  8  2  1  0  0  0  0
 11 12  1  0  0  0  0
 13 17  1  0  0  0  0
 13 14  1  0  0  0  0
 14 19  1  0  0  0  0
 14 18  1  0  0  0  0
 15 13  2  0  0  0  0
 16 13  2  0  0  0  0
 20 14  1  0  0  0  0
 21  6  1  0  0  0  0
 21 22  1  0  0  0  0
 22 25  1  0  0  0  0
 23 22  1  0  0  0  0
 24 22  1  0  0  0  0
M  RAD  3  11   2  12   3  17   2
M  END
