Coordinates from ORCA-job p-CH3O-Ph-N2-X-OTf-B3LYPG-6-31G_dp-scan-d09-49-n400
 OpenBabel08281821483D

 25 24  0  0  0  0  0  0  0  0999 V2000
   -2.0279   -0.8541   -5.2533 C   0  0  0  0  0  0  0  0  0  0  0  0
   -0.8903   -0.0876   -5.1357 C   0  0  0  0  0  0  0  0  0  0  0  0
   -1.0529    1.3147   -5.1373 C   0  0  0  0  0  0  0  0  0  0  0  0
   -2.3047    1.9452   -5.2633 C   0  0  0  0  0  0  0  0  0  0  0  0
   -3.4311    1.1543   -5.3907 C   0  0  0  0  0  0  0  0  0  0  0  0
   -3.2995   -0.2528   -5.3863 C   0  0  0  0  0  0  0  0  0  0  0  0
   -1.9659   -1.9366   -5.2645 H   0  0  0  0  0  0  0  0  0  0  0  0
    0.1174   -0.5054   -5.0684 H   0  0  0  0  0  0  0  0  0  0  0  0
   -2.3798    3.0273   -5.2690 H   0  0  0  0  0  0  0  0  0  0  0  0
   -4.3993    1.6257   -5.4963 H   0  0  0  0  0  0  0  0  0  0  0  0
    0.0441    2.1251   -4.9966 N   0  0  0  0  0  0  0  0  0  0  0  0
    0.8614    2.8587   -4.8017 N   0  0  0  0  0  0  0  0  0  0  0  0
    2.2453    0.0866   -6.7401 S   0  0  0  0  0  0  0  0  0  0  0  0
    3.7283    1.1801   -6.5036 C   0  0  0  0  0  0  0  0  0  0  0  0
    2.6314   -0.8474   -7.8029 O   0  0  0  0  0  0  0  0  0  0  0  0
    1.1708    1.0656   -7.0842 O   0  0  0  0  0  0  0  0  0  0  0  0
    2.0552   -0.4956   -5.3786 O   0  0  0  0  0  0  0  0  0  0  0  0
    3.4752    2.1057   -5.5462 F   0  0  0  0  0  0  0  0  0  0  0  0
    4.7991    0.4748   -6.1189 F   0  0  0  0  0  0  0  0  0  0  0  0
    4.0313    1.8347   -7.6330 F   0  0  0  0  0  0  0  0  0  0  0  0
   -4.3274   -1.1020   -5.5024 O   0  0  0  0  0  0  0  0  0  0  0  0
   -5.6553   -0.5956   -5.6676 C   0  0  0  0  0  0  0  0  0  0  0  0
   -6.2943   -1.4741   -5.7448 H   0  0  0  0  0  0  0  0  0  0  0  0
   -5.7377   -0.0003   -6.5830 H   0  0  0  0  0  0  0  0  0  0  0  0
   -5.9590    0.0032   -4.8018 H   0  0  0  0  0  0  0  0  0  0  0  0
  1  2  2  0  0  0  0
  2  8  1  0  0  0  0
  3  2  1  0  0  0  0
  3 11  1  0  0  0  0
  4  3  2  0  0  0  0
  5  6  2  0  0  0  0
  5  4  1  0  0  0  0
  6  1  1  0  0  0  0
  7  1  1  0  0  0  0
  9  4  1  0  0  0  0
 10  5  1  0  0  0  0
 11 12  1  0  0  0  0
 13 14  1  0  0  0  0
 13 17  1  0  0  0  0
 14 19  1  0  0  0  0
 14 18  1  0  0  0  0
 15 13  2  0  0  0  0
 16 13  2  0  0  0  0
 20 14  1  0  0  0  0
 21  6  1  0  0  0  0
 22 21  1  0  0  0  0
 22 25  1  0  0  0  0
 23 22  1  0  0  0  0
 24 22  1  0  0  0  0
M  RAD  3  11   2  12   3  17   2
M  END
