Coordinates from ORCA-job p-CH3O-Ph-N2-X-OTf-B3LYPG-6-31G_dp-scan-d09-49-n400
 OpenBabel08281821483D

 25 24  0  0  0  0  0  0  0  0999 V2000
   -2.0686   -0.9059   -5.2151 C   0  0  0  0  0  0  0  0  0  0  0  0
   -0.9199   -0.1755   -5.0145 C   0  0  0  0  0  0  0  0  0  0  0  0
   -1.0396    1.2324   -4.9828 C   0  0  0  0  0  0  0  0  0  0  0  0
   -2.2617    1.9013   -5.1595 C   0  0  0  0  0  0  0  0  0  0  0  0
   -3.4026    1.1483   -5.3710 C   0  0  0  0  0  0  0  0  0  0  0  0
   -3.3128   -0.2610   -5.3998 C   0  0  0  0  0  0  0  0  0  0  0  0
   -2.0376   -1.9889   -5.2556 H   0  0  0  0  0  0  0  0  0  0  0  0
    0.0650   -0.6185   -4.8930 H   0  0  0  0  0  0  0  0  0  0  0  0
   -2.3046    2.9848   -5.1379 H   0  0  0  0  0  0  0  0  0  0  0  0
   -4.3496    1.6509   -5.5163 H   0  0  0  0  0  0  0  0  0  0  0  0
    0.0873    1.9776   -4.7663 N   0  0  0  0  0  0  0  0  0  0  0  0
    1.0299    2.5297   -4.5446 N   0  0  0  0  0  0  0  0  0  0  0  0
    2.2265    0.1572   -6.5458 S   0  0  0  0  0  0  0  0  0  0  0  0
    3.7008    1.2593   -6.7918 C   0  0  0  0  0  0  0  0  0  0  0  0
    2.5564   -1.0901   -7.2462 O   0  0  0  0  0  0  0  0  0  0  0  0
    1.1035    0.9584   -7.1057 O   0  0  0  0  0  0  0  0  0  0  0  0
    2.1448    0.0625   -5.0522 O   0  0  0  0  0  0  0  0  0  0  0  0
    3.4945    2.4499   -6.1861 F   0  0  0  0  0  0  0  0  0  0  0  0
    4.8060    0.7139   -6.2678 F   0  0  0  0  0  0  0  0  0  0  0  0
    3.9162    1.4909   -8.0942 F   0  0  0  0  0  0  0  0  0  0  0  0
   -4.3567   -1.0759   -5.5948 O   0  0  0  0  0  0  0  0  0  0  0  0
   -5.6587   -0.5252   -5.8146 C   0  0  0  0  0  0  0  0  0  0  0  0
   -6.3189   -1.3816   -5.9444 H   0  0  0  0  0  0  0  0  0  0  0  0
   -5.6768    0.0922   -6.7189 H   0  0  0  0  0  0  0  0  0  0  0  0
   -5.9883    0.0635   -4.9513 H   0  0  0  0  0  0  0  0  0  0  0  0
  1  2  2  0  0  0  0
  2  3  1  0  0  0  0
  2  8  1  0  0  0  0
  3 11  1  0  0  0  0
  4  9  1  0  0  0  0
  4  3  2  0  0  0  0
  5  4  1  0  0  0  0
  6  5  2  0  0  0  0
  6  1  1  0  0  0  0
  7  1  1  0  0  0  0
 10  5  1  0  0  0  0
 11 12  1  0  0  0  0
 13 17  1  0  0  0  0
 14 13  1  0  0  0  0
 14 19  1  0  0  0  0
 14 18  1  0  0  0  0
 15 13  2  0  0  0  0
 16 13  2  0  0  0  0
 20 14  1  0  0  0  0
 21  6  1  0  0  0  0
 22 21  1  0  0  0  0
 22 25  1  0  0  0  0
 23 22  1  0  0  0  0
 24 22  1  0  0  0  0
M  RAD  3  11   2  12   3  17   2
M  END
