Coordinates from ORCA-job p-CH3O-Ph-N2-X-OTf-B3LYPG-6-31G_dp-scan-d09-49-n400
 OpenBabel08281821483D

 25 24  0  0  0  0  0  0  0  0999 V2000
   -2.0659   -0.9135   -5.2101 C   0  0  0  0  0  0  0  0  0  0  0  0
   -0.9112   -0.1861   -5.0326 C   0  0  0  0  0  0  0  0  0  0  0  0
   -1.0234    1.2216   -5.0224 C   0  0  0  0  0  0  0  0  0  0  0  0
   -2.2452    1.8940   -5.1977 C   0  0  0  0  0  0  0  0  0  0  0  0
   -3.3916    1.1436   -5.3852 C   0  0  0  0  0  0  0  0  0  0  0  0
   -3.3090   -0.2664   -5.3921 C   0  0  0  0  0  0  0  0  0  0  0  0
   -2.0403   -1.9972   -5.2333 H   0  0  0  0  0  0  0  0  0  0  0  0
    0.0752   -0.6295   -4.9176 H   0  0  0  0  0  0  0  0  0  0  0  0
   -2.2830    2.9779   -5.1936 H   0  0  0  0  0  0  0  0  0  0  0  0
   -4.3373    1.6492   -5.5288 H   0  0  0  0  0  0  0  0  0  0  0  0
    0.0985    1.9818   -4.8234 N   0  0  0  0  0  0  0  0  0  0  0  0
    0.9813    2.6230   -4.5979 N   0  0  0  0  0  0  0  0  0  0  0  0
    2.2128    0.1538   -6.5822 S   0  0  0  0  0  0  0  0  0  0  0  0
    3.7008    1.2546   -6.7354 C   0  0  0  0  0  0  0  0  0  0  0  0
    2.5495   -1.0562   -7.3414 O   0  0  0  0  0  0  0  0  0  0  0  0
    1.1115    0.9964   -7.1277 O   0  0  0  0  0  0  0  0  0  0  0  0
    2.0933   -0.0136   -5.0988 O   0  0  0  0  0  0  0  0  0  0  0  0
    3.4857    2.4155   -6.0755 F   0  0  0  0  0  0  0  0  0  0  0  0
    4.7892    0.6769   -6.2111 F   0  0  0  0  0  0  0  0  0  0  0  0
    3.9513    1.5508   -8.0180 F   0  0  0  0  0  0  0  0  0  0  0  0
   -4.3590   -1.0790   -5.5635 O   0  0  0  0  0  0  0  0  0  0  0  0
   -5.6604   -0.5249   -5.7789 C   0  0  0  0  0  0  0  0  0  0  0  0
   -6.3261   -1.3797   -5.8893 H   0  0  0  0  0  0  0  0  0  0  0  0
   -5.6843    0.0789   -6.6921 H   0  0  0  0  0  0  0  0  0  0  0  0
   -5.9783    0.0784   -4.9213 H   0  0  0  0  0  0  0  0  0  0  0  0
  1  2  2  0  0  0  0
  2  3  1  0  0  0  0
  2  8  1  0  0  0  0
  3 11  1  0  0  0  0
  4  9  1  0  0  0  0
  4  3  2  0  0  0  0
  5  4  1  0  0  0  0
  6  5  2  0  0  0  0
  6  1  1  0  0  0  0
  7  1  1  0  0  0  0
 10  5  1  0  0  0  0
 11 12  1  0  0  0  0
 13 17  1  0  0  0  0
 14 13  1  0  0  0  0
 14 19  1  0  0  0  0
 14 18  1  0  0  0  0
 15 13  2  0  0  0  0
 16 13  2  0  0  0  0
 20 14  1  0  0  0  0
 21  6  1  0  0  0  0
 22 21  1  0  0  0  0
 22 25  1  0  0  0  0
 23 22  1  0  0  0  0
 24 22  1  0  0  0  0
M  RAD  3  11   2  12   3  17   2
M  END
