Coordinates from ORCA-job p-CH3O-Ph-N2-X-OTf-B3LYPG-6-31G_dp-scan-d09-49-n400
 OpenBabel08281821483D

 25 24  0  0  0  0  0  0  0  0999 V2000
   -2.1179   -0.8903   -5.3226 C   0  0  0  0  0  0  0  0  0  0  0  0
   -0.9756   -0.1532   -5.1018 C   0  0  0  0  0  0  0  0  0  0  0  0
   -1.1078    1.2472   -4.9721 C   0  0  0  0  0  0  0  0  0  0  0  0
   -2.3459    1.8971   -5.0625 C   0  0  0  0  0  0  0  0  0  0  0  0
   -3.4847    1.1437   -5.2963 C   0  0  0  0  0  0  0  0  0  0  0  0
   -3.3759   -0.2561   -5.4282 C   0  0  0  0  0  0  0  0  0  0  0  0
   -2.0717   -1.9678   -5.4344 H   0  0  0  0  0  0  0  0  0  0  0  0
    0.0065   -0.6043   -5.0215 H   0  0  0  0  0  0  0  0  0  0  0  0
   -2.4034    2.9751   -4.9579 H   0  0  0  0  0  0  0  0  0  0  0  0
   -4.4431    1.6398   -5.3767 H   0  0  0  0  0  0  0  0  0  0  0  0
    0.0229    1.9997   -4.7474 N   0  0  0  0  0  0  0  0  0  0  0  0
    1.1172    2.2557   -4.6261 N   0  0  0  0  0  0  0  0  0  0  0  0
    2.3449    0.2172   -6.5074 S   0  0  0  0  0  0  0  0  0  0  0  0
    3.8375    1.2693   -6.8439 C   0  0  0  0  0  0  0  0  0  0  0  0
    2.7199   -1.1402   -6.9154 O   0  0  0  0  0  0  0  0  0  0  0  0
    1.2477    0.8847   -7.2382 O   0  0  0  0  0  0  0  0  0  0  0  0
    2.1827    0.3644   -5.0029 O   0  0  0  0  0  0  0  0  0  0  0  0
    3.6126    2.5323   -6.4372 F   0  0  0  0  0  0  0  0  0  0  0  0
    4.9076    0.7993   -6.1932 F   0  0  0  0  0  0  0  0  0  0  0  0
    4.1067    1.2903   -8.1555 F   0  0  0  0  0  0  0  0  0  0  0  0
   -4.4138   -1.0762   -5.6519 O   0  0  0  0  0  0  0  0  0  0  0  0
   -5.7278   -0.5313   -5.7906 C   0  0  0  0  0  0  0  0  0  0  0  0
   -6.3818   -1.3853   -5.9624 H   0  0  0  0  0  0  0  0  0  0  0  0
   -5.7837    0.1506   -6.6461 H   0  0  0  0  0  0  0  0  0  0  0  0
   -6.0385   -0.0114   -4.8776 H   0  0  0  0  0  0  0  0  0  0  0  0
  1  2  1  0  0  0  0
  2  8  1  0  0  0  0
  2  3  2  0  0  0  0
  3 11  1  0  0  0  0
  4  3  1  0  0  0  0
  4  9  1  0  0  0  0
  5  4  2  0  0  0  0
  6  1  2  0  0  0  0
  6  5  1  0  0  0  0
  7  1  1  0  0  0  0
 10  5  1  0  0  0  0
 11 12  1  0  0  0  0
 13 17  1  0  0  0  0
 14 13  1  0  0  0  0
 14 18  1  0  0  0  0
 14 19  1  0  0  0  0
 15 13  2  0  0  0  0
 16 13  2  0  0  0  0
 20 14  1  0  0  0  0
 21  6  1  0  0  0  0
 22 21  1  0  0  0  0
 22 25  1  0  0  0  0
 23 22  1  0  0  0  0
 24 22  1  0  0  0  0
M  RAD  3  11   2  12   3  17   2
M  END
