Coordinates from ORCA-job p-CH3O-Ph-N2-X-OTf-B3LYPG-6-31G_dp-scan-d09-49-n400
 OpenBabel08281821483D

 25 25  0  0  0  0  0  0  0  0999 V2000
   -2.1127   -1.1800   -5.1959 C   0  0  0  0  0  0  0  0  0  0  0  0
   -0.8379   -0.6403   -5.2310 C   0  0  0  0  0  0  0  0  0  0  0  0
   -0.6732    0.7331   -5.4505 C   0  0  0  0  0  0  0  0  0  0  0  0
   -1.7821    1.5568   -5.6425 C   0  0  0  0  0  0  0  0  0  0  0  0
   -3.0680    1.0206   -5.5956 C   0  0  0  0  0  0  0  0  0  0  0  0
   -3.2369   -0.3540   -5.3754 C   0  0  0  0  0  0  0  0  0  0  0  0
   -2.2712   -2.2393   -5.0256 H   0  0  0  0  0  0  0  0  0  0  0  0
    0.0323   -1.2709   -5.0881 H   0  0  0  0  0  0  0  0  0  0  0  0
   -1.6381    2.6176   -5.8197 H   0  0  0  0  0  0  0  0  0  0  0  0
   -3.9195    1.6737   -5.7382 H   0  0  0  0  0  0  0  0  0  0  0  0
    0.6439    1.3009   -5.4737 N   0  0  0  0  0  0  0  0  0  0  0  0
    0.9759    2.2013   -4.5493 N   0  0  0  0  0  0  0  0  0  0  0  0
    1.6404    1.1429   -6.9786 S   0  0  0  0  0  0  0  0  0  0  0  0
    3.3620    0.6650   -6.3317 C   0  0  0  0  0  0  0  0  0  0  0  0
    1.1085   -0.0567   -7.6133 O   0  0  0  0  0  0  0  0  0  0  0  0
    1.7232    2.4203   -7.6710 O   0  0  0  0  0  0  0  0  0  0  0  0
    2.1158    2.7487   -4.7538 O   0  0  0  0  0  0  0  0  0  0  0  0
    3.2478    0.1294   -5.1188 F   0  0  0  0  0  0  0  0  0  0  0  0
    3.8346   -0.2476   -7.1795 F   0  0  0  0  0  0  0  0  0  0  0  0
    4.1616    1.7132   -6.3127 F   0  0  0  0  0  0  0  0  0  0  0  0
   -4.4378   -0.9819   -5.3182 O   0  0  0  0  0  0  0  0  0  0  0  0
   -5.6203   -0.2110   -5.4945 C   0  0  0  0  0  0  0  0  0  0  0  0
   -6.4496   -0.9141   -5.4120 H   0  0  0  0  0  0  0  0  0  0  0  0
   -5.6456    0.2648   -6.4823 H   0  0  0  0  0  0  0  0  0  0  0  0
   -5.7186    0.5577   -4.7180 H   0  0  0  0  0  0  0  0  0  0  0  0
  1  7  1  0  0  0  0
  2  1  1  0  0  0  0
  2  8  1  0  0  0  0
  3  2  2  0  0  0  0
  4  5  2  0  0  0  0
  4  3  1  0  0  0  0
  5  6  1  0  0  0  0
  6 21  1  0  0  0  0
  6  1  2  0  0  0  0
  9  4  1  0  0  0  0
 10  5  1  0  0  0  0
 11  3  1  0  0  0  0
 11 12  1  0  0  0  0
 13 14  1  0  0  0  0
 13 11  1  0  0  0  0
 14 20  1  0  0  0  0
 14 18  1  0  0  0  0
 15 13  2  0  0  0  0
 16 13  2  0  0  0  0
 17 12  1  0  0  0  0
 19 14  1  0  0  0  0
 22 23  1  0  0  0  0
 22 21  1  0  0  0  0
 22 25  1  0  0  0  0
 24 22  1  0  0  0  0
M  RAD  2  12   2  17   2
M  END
