Coordinates from ORCA-job p-CH3O-Ph-N2-X-OTf-B3LYPG-6-31G_dp-scan-d09-49-n400
 OpenBabel08281821483D

 25 24  0  0  0  0  0  0  0  0999 V2000
   -2.0639   -0.9101   -5.2131 C   0  0  0  0  0  0  0  0  0  0  0  0
   -0.9083   -0.1803   -5.0507 C   0  0  0  0  0  0  0  0  0  0  0  0
   -1.0221    1.2268   -5.0499 C   0  0  0  0  0  0  0  0  0  0  0  0
   -2.2465    1.8968   -5.2194 C   0  0  0  0  0  0  0  0  0  0  0  0
   -3.3936    1.1438   -5.3914 C   0  0  0  0  0  0  0  0  0  0  0  0
   -3.3094   -0.2662   -5.3888 C   0  0  0  0  0  0  0  0  0  0  0  0
   -2.0371   -1.9939   -5.2283 H   0  0  0  0  0  0  0  0  0  0  0  0
    0.0808   -0.6212   -4.9423 H   0  0  0  0  0  0  0  0  0  0  0  0
   -2.2858    2.9807   -5.2228 H   0  0  0  0  0  0  0  0  0  0  0  0
   -4.3410    1.6475   -5.5302 H   0  0  0  0  0  0  0  0  0  0  0  0
    0.0966    1.9966   -4.8632 N   0  0  0  0  0  0  0  0  0  0  0  0
    0.9524    2.6743   -4.6399 N   0  0  0  0  0  0  0  0  0  0  0  0
    2.2164    0.1431   -6.6052 S   0  0  0  0  0  0  0  0  0  0  0  0
    3.7078    1.2465   -6.6971 C   0  0  0  0  0  0  0  0  0  0  0  0
    2.5615   -1.0363   -7.4073 O   0  0  0  0  0  0  0  0  0  0  0  0
    1.1244    1.0096   -7.1333 O   0  0  0  0  0  0  0  0  0  0  0  0
    2.0773   -0.0798   -5.1316 O   0  0  0  0  0  0  0  0  0  0  0  0
    3.4831    2.3843   -6.0001 F   0  0  0  0  0  0  0  0  0  0  0  0
    4.7877    0.6503   -6.1763 F   0  0  0  0  0  0  0  0  0  0  0  0
    3.9785    1.5879   -7.9642 F   0  0  0  0  0  0  0  0  0  0  0  0
   -4.3599   -1.0811   -5.5452 O   0  0  0  0  0  0  0  0  0  0  0  0
   -5.6638   -0.5298   -5.7526 C   0  0  0  0  0  0  0  0  0  0  0  0
   -6.3295   -1.3861   -5.8518 H   0  0  0  0  0  0  0  0  0  0  0  0
   -5.6965    0.0683   -6.6693 H   0  0  0  0  0  0  0  0  0  0  0  0
   -5.9749    0.0786   -4.8960 H   0  0  0  0  0  0  0  0  0  0  0  0
  1  2  2  0  0  0  0
  2  3  1  0  0  0  0
  2  8  1  0  0  0  0
  3 11  1  0  0  0  0
  4  3  2  0  0  0  0
  5  6  2  0  0  0  0
  5  4  1  0  0  0  0
  6  1  1  0  0  0  0
  7  1  1  0  0  0  0
  9  4  1  0  0  0  0
 10  5  1  0  0  0  0
 11 12  1  0  0  0  0
 13 17  1  0  0  0  0
 14 13  1  0  0  0  0
 14 19  1  0  0  0  0
 14 18  1  0  0  0  0
 15 13  2  0  0  0  0
 16 13  2  0  0  0  0
 20 14  1  0  0  0  0
 21  6  1  0  0  0  0
 22 21  1  0  0  0  0
 22 25  1  0  0  0  0
 23 22  1  0  0  0  0
 24 22  1  0  0  0  0
M  RAD  3  11   2  12   3  17   2
M  END
