Coordinates from ORCA-job p-CH3O-Ph-N2-X-OTf-B3LYPG-6-31G_dp-scan-d09-49-n400
 OpenBabel08281821483D

 25 24  0  0  0  0  0  0  0  0999 V2000
   -1.9432   -0.7661   -5.5139 C   0  0  0  0  0  0  0  0  0  0  0  0
   -0.8418    0.0621   -5.5485 C   0  0  0  0  0  0  0  0  0  0  0  0
   -1.0806    1.4520   -5.4802 C   0  0  0  0  0  0  0  0  0  0  0  0
   -2.3751    2.0041   -5.3854 C   0  0  0  0  0  0  0  0  0  0  0  0
   -3.4619    1.1523   -5.3637 C   0  0  0  0  0  0  0  0  0  0  0  0
   -3.2519   -0.2442   -5.4277 C   0  0  0  0  0  0  0  0  0  0  0  0
   -1.8183   -1.8418   -5.5693 H   0  0  0  0  0  0  0  0  0  0  0  0
    0.1688   -0.3453   -5.6469 H   0  0  0  0  0  0  0  0  0  0  0  0
   -2.5110    3.0794   -5.3384 H   0  0  0  0  0  0  0  0  0  0  0  0
   -4.4590    1.5677   -5.2993 H   0  0  0  0  0  0  0  0  0  0  0  0
   -0.0433    2.3524   -5.4721 N   0  0  0  0  0  0  0  0  0  0  0  0
    0.6816    3.1961   -5.3783 N   0  0  0  0  0  0  0  0  0  0  0  0
    2.3952    0.1271   -7.0385 S   0  0  0  0  0  0  0  0  0  0  0  0
    3.5855    0.9950   -5.9045 C   0  0  0  0  0  0  0  0  0  0  0  0
    3.1853   -0.2124   -8.2243 O   0  0  0  0  0  0  0  0  0  0  0  0
    1.3481    1.1796   -7.2314 O   0  0  0  0  0  0  0  0  0  0  0  0
    1.9125   -1.0088   -6.2057 O   0  0  0  0  0  0  0  0  0  0  0  0
    2.9158    1.4792   -4.8227 F   0  0  0  0  0  0  0  0  0  0  0  0
    4.5404    0.1727   -5.4581 F   0  0  0  0  0  0  0  0  0  0  0  0
    4.1683    2.0371   -6.5130 F   0  0  0  0  0  0  0  0  0  0  0  0
   -4.2357   -1.1511   -5.4129 O   0  0  0  0  0  0  0  0  0  0  0  0
   -5.5991   -0.7231   -5.3460 C   0  0  0  0  0  0  0  0  0  0  0  0
   -6.1920   -1.6366   -5.3560 H   0  0  0  0  0  0  0  0  0  0  0  0
   -5.8608   -0.1067   -6.2129 H   0  0  0  0  0  0  0  0  0  0  0  0
   -5.7935   -0.1704   -4.4204 H   0  0  0  0  0  0  0  0  0  0  0  0
  1  6  1  0  0  0  0
  2  1  2  0  0  0  0
  2  3  1  0  0  0  0
  3 11  1  0  0  0  0
  3  4  2  0  0  0  0
  4  5  1  0  0  0  0
  4  9  1  0  0  0  0
  5 10  1  0  0  0  0
  6 21  1  0  0  0  0
  6  5  2  0  0  0  0
  7  1  1  0  0  0  0
  8  2  1  0  0  0  0
 11 12  1  0  0  0  0
 13 17  1  0  0  0  0
 13 14  1  0  0  0  0
 14 19  1  0  0  0  0
 14 18  1  0  0  0  0
 15 13  2  0  0  0  0
 16 13  2  0  0  0  0
 20 14  1  0  0  0  0
 21 22  1  0  0  0  0
 22 25  1  0  0  0  0
 23 22  1  0  0  0  0
 24 22  1  0  0  0  0
M  RAD  3  11   2  12   3  17   2
M  END
