Coordinates from ORCA-job p-CH3O-Ph-N2-X-OTf-B3LYPG-6-31G_dp-scan-d09-49-n400
 OpenBabel08281821483D

 25 24  0  0  0  0  0  0  0  0999 V2000
   -1.9712   -0.7867   -5.4033 C   0  0  0  0  0  0  0  0  0  0  0  0
   -0.8621    0.0299   -5.3712 C   0  0  0  0  0  0  0  0  0  0  0  0
   -1.0900    1.4231   -5.3327 C   0  0  0  0  0  0  0  0  0  0  0  0
   -2.3786    1.9937   -5.3333 C   0  0  0  0  0  0  0  0  0  0  0  0
   -3.4735    1.1529   -5.3770 C   0  0  0  0  0  0  0  0  0  0  0  0
   -3.2761   -0.2467   -5.4124 C   0  0  0  0  0  0  0  0  0  0  0  0
   -1.8577   -1.8645   -5.4406 H   0  0  0  0  0  0  0  0  0  0  0  0
    0.1577   -0.3684   -5.3997 H   0  0  0  0  0  0  0  0  0  0  0  0
   -2.5040    3.0710   -5.3086 H   0  0  0  0  0  0  0  0  0  0  0  0
   -4.4682    1.5790   -5.3865 H   0  0  0  0  0  0  0  0  0  0  0  0
   -0.0313    2.2923   -5.2690 N   0  0  0  0  0  0  0  0  0  0  0  0
    0.7496    3.0792   -5.1433 N   0  0  0  0  0  0  0  0  0  0  0  0
    2.3300    0.0924   -6.9316 S   0  0  0  0  0  0  0  0  0  0  0  0
    3.6901    1.0717   -6.1280 C   0  0  0  0  0  0  0  0  0  0  0  0
    2.9359   -0.4671   -8.1429 O   0  0  0  0  0  0  0  0  0  0  0  0
    1.2827    1.1376   -7.1467 O   0  0  0  0  0  0  0  0  0  0  0  0
    1.9509   -0.8781   -5.8659 O   0  0  0  0  0  0  0  0  0  0  0  0
    3.2092    1.7132   -5.0302 F   0  0  0  0  0  0  0  0  0  0  0  0
    4.6977    0.2863   -5.7319 F   0  0  0  0  0  0  0  0  0  0  0  0
    4.1757    2.0044   -6.9591 F   0  0  0  0  0  0  0  0  0  0  0  0
   -4.2697   -1.1417   -5.4557 O   0  0  0  0  0  0  0  0  0  0  0  0
   -5.6292   -0.6978   -5.4926 C   0  0  0  0  0  0  0  0  0  0  0  0
   -6.2305   -1.6046   -5.5375 H   0  0  0  0  0  0  0  0  0  0  0  0
   -5.8191   -0.0870   -6.3816 H   0  0  0  0  0  0  0  0  0  0  0  0
   -5.8842   -0.1339   -4.5885 H   0  0  0  0  0  0  0  0  0  0  0  0
  1  2  1  0  0  0  0
  2  3  2  0  0  0  0
  3 11  1  0  0  0  0
  4  3  1  0  0  0  0
  4  9  1  0  0  0  0
  5  4  2  0  0  0  0
  6  1  2  0  0  0  0
  6  5  1  0  0  0  0
  7  1  1  0  0  0  0
  8  2  1  0  0  0  0
 10  5  1  0  0  0  0
 11 12  1  0  0  0  0
 13 14  1  0  0  0  0
 13 17  1  0  0  0  0
 14 19  1  0  0  0  0
 14 18  1  0  0  0  0
 15 13  2  0  0  0  0
 16 13  2  0  0  0  0
 20 14  1  0  0  0  0
 21  6  1  0  0  0  0
 22 21  1  0  0  0  0
 22 25  1  0  0  0  0
 23 22  1  0  0  0  0
 24 22  1  0  0  0  0
M  RAD  3  11   2  12   3  17   2
M  END
