Coordinates from ORCA-job p-CH3O-Ph-N2-X-OTf-B3LYPG-6-31G_dp-scan-d09-49-n400
 OpenBabel08281821483D

 25 25  0  0  0  0  0  0  0  0999 V2000
   -2.1310   -1.1896   -5.3188 C   0  0  0  0  0  0  0  0  0  0  0  0
   -0.8564   -0.6502   -5.3456 C   0  0  0  0  0  0  0  0  0  0  0  0
   -0.6987    0.7366   -5.4702 C   0  0  0  0  0  0  0  0  0  0  0  0
   -1.8112    1.5732   -5.5747 C   0  0  0  0  0  0  0  0  0  0  0  0
   -3.0947    1.0334   -5.5353 C   0  0  0  0  0  0  0  0  0  0  0  0
   -3.2592   -0.3542   -5.4106 C   0  0  0  0  0  0  0  0  0  0  0  0
   -2.2860   -2.2586   -5.2210 H   0  0  0  0  0  0  0  0  0  0  0  0
    0.0145   -1.2903   -5.2715 H   0  0  0  0  0  0  0  0  0  0  0  0
   -1.6688    2.6439   -5.6783 H   0  0  0  0  0  0  0  0  0  0  0  0
   -3.9488    1.6943   -5.6107 H   0  0  0  0  0  0  0  0  0  0  0  0
    0.6128    1.3170   -5.4786 N   0  0  0  0  0  0  0  0  0  0  0  0
    0.9005    2.2552   -4.6381 N   0  0  0  0  0  0  0  0  0  0  0  0
    1.6968    1.0670   -6.9628 S   0  0  0  0  0  0  0  0  0  0  0  0
    3.4245    0.6945   -6.2510 C   0  0  0  0  0  0  0  0  0  0  0  0
    1.2153   -0.2083   -7.4826 O   0  0  0  0  0  0  0  0  0  0  0  0
    1.7239    2.2690   -7.7811 O   0  0  0  0  0  0  0  0  0  0  0  0
    2.1664    2.8441   -4.9531 O   0  0  0  0  0  0  0  0  0  0  0  0
    3.3030    0.2599   -5.0024 F   0  0  0  0  0  0  0  0  0  0  0  0
    3.9178   -0.2799   -7.0159 F   0  0  0  0  0  0  0  0  0  0  0  0
    4.2041    1.7514   -6.3241 F   0  0  0  0  0  0  0  0  0  0  0  0
   -4.4576   -0.9855   -5.3704 O   0  0  0  0  0  0  0  0  0  0  0  0
   -5.6446   -0.2050   -5.4534 C   0  0  0  0  0  0  0  0  0  0  0  0
   -6.4712   -0.9140   -5.4040 H   0  0  0  0  0  0  0  0  0  0  0  0
   -5.6965    0.3467   -6.3997 H   0  0  0  0  0  0  0  0  0  0  0  0
   -5.7207    0.4995   -4.6160 H   0  0  0  0  0  0  0  0  0  0  0  0
  1  7  1  0  0  0  0
  2  1  1  0  0  0  0
  2  8  1  0  0  0  0
  3  2  2  0  0  0  0
  4  5  2  0  0  0  0
  4  3  1  0  0  0  0
  5  6  1  0  0  0  0
  6 21  1  0  0  0  0
  6  1  2  0  0  0  0
  9  4  1  0  0  0  0
 10  5  1  0  0  0  0
 11  3  1  0  0  0  0
 11 12  1  0  0  0  0
 13 14  1  0  0  0  0
 13 11  1  0  0  0  0
 14 18  1  0  0  0  0
 15 13  2  0  0  0  0
 16 13  2  0  0  0  0
 17 12  1  0  0  0  0
 19 14  1  0  0  0  0
 20 14  1  0  0  0  0
 22 23  1  0  0  0  0
 22 21  1  0  0  0  0
 22 25  1  0  0  0  0
 24 22  1  0  0  0  0
M  RAD  2  12   2  17   2
M  END
