Coordinates from ORCA-job p-CH3O-Ph-N2-X-OTf-B3LYPG-6-31G_dp-scan-d09-49-n400
 OpenBabel08281821483D

 25 24  0  0  0  0  0  0  0  0999 V2000
   -1.8887   -0.7269   -5.5523 C   0  0  0  0  0  0  0  0  0  0  0  0
   -0.8065    0.1216   -5.6462 C   0  0  0  0  0  0  0  0  0  0  0  0
   -1.0683    1.5077   -5.5916 C   0  0  0  0  0  0  0  0  0  0  0  0
   -2.3685    2.0370   -5.4507 C   0  0  0  0  0  0  0  0  0  0  0  0
   -3.4362    1.1654   -5.3684 C   0  0  0  0  0  0  0  0  0  0  0  0
   -3.2023   -0.2282   -5.4181 C   0  0  0  0  0  0  0  0  0  0  0  0
   -1.7435   -1.8005   -5.5964 H   0  0  0  0  0  0  0  0  0  0  0  0
    0.2036   -0.2717   -5.7812 H   0  0  0  0  0  0  0  0  0  0  0  0
   -2.5233    3.1102   -5.4159 H   0  0  0  0  0  0  0  0  0  0  0  0
   -4.4376    1.5630   -5.2676 H   0  0  0  0  0  0  0  0  0  0  0  0
   -0.0486    2.4255   -5.6442 N   0  0  0  0  0  0  0  0  0  0  0  0
    0.6698    3.2788   -5.6120 N   0  0  0  0  0  0  0  0  0  0  0  0
    2.4263    0.1585   -7.1413 S   0  0  0  0  0  0  0  0  0  0  0  0
    3.4171    0.8740   -5.7396 C   0  0  0  0  0  0  0  0  0  0  0  0
    3.3920   -0.0402   -8.2239 O   0  0  0  0  0  0  0  0  0  0  0  0
    1.4127    1.2388   -7.3554 O   0  0  0  0  0  0  0  0  0  0  0  0
    1.8371   -1.0636   -6.5294 O   0  0  0  0  0  0  0  0  0  0  0  0
    2.5791    1.2135   -4.7184 F   0  0  0  0  0  0  0  0  0  0  0  0
    4.3124    0.0062   -5.2584 F   0  0  0  0  0  0  0  0  0  0  0  0
    4.0607    1.9901   -6.1109 F   0  0  0  0  0  0  0  0  0  0  0  0
   -4.1670   -1.1525   -5.3455 O   0  0  0  0  0  0  0  0  0  0  0  0
   -5.5340   -0.7484   -5.2237 C   0  0  0  0  0  0  0  0  0  0  0  0
   -6.1090   -1.6726   -5.1894 H   0  0  0  0  0  0  0  0  0  0  0  0
   -5.8471   -0.1541   -6.0890 H   0  0  0  0  0  0  0  0  0  0  0  0
   -5.6960   -0.1813   -4.3006 H   0  0  0  0  0  0  0  0  0  0  0  0
  1  6  2  0  0  0  0
  2  3  2  0  0  0  0
  2  1  1  0  0  0  0
  3  4  1  0  0  0  0
  4  9  1  0  0  0  0
  4  5  2  0  0  0  0
  5 10  1  0  0  0  0
  6  5  1  0  0  0  0
  6 21  1  0  0  0  0
  7  1  1  0  0  0  0
  8  2  1  0  0  0  0
 11 12  1  0  0  0  0
 11  3  1  0  0  0  0
 13 17  1  0  0  0  0
 13 14  1  0  0  0  0
 14 19  1  0  0  0  0
 14 18  1  0  0  0  0
 15 13  2  0  0  0  0
 16 13  2  0  0  0  0
 20 14  1  0  0  0  0
 21 22  1  0  0  0  0
 22 23  1  0  0  0  0
 22 25  1  0  0  0  0
 24 22  1  0  0  0  0
M  RAD  3  11   2  12   3  17   2
M  END
