Coordinates from ORCA-job p-CH3O-Ph-N2-X-OTf-B3LYPG-6-31G_dp-scan-d09-49-n400
 OpenBabel08281821483D

 25 24  0  0  0  0  0  0  0  0999 V2000
   -2.0248   -0.8412   -5.3031 C   0  0  0  0  0  0  0  0  0  0  0  0
   -0.8907   -0.0659   -5.2079 C   0  0  0  0  0  0  0  0  0  0  0  0
   -1.0665    1.3348   -5.1907 C   0  0  0  0  0  0  0  0  0  0  0  0
   -2.3276    1.9546   -5.2761 C   0  0  0  0  0  0  0  0  0  0  0  0
   -3.4497    1.1549   -5.3825 C   0  0  0  0  0  0  0  0  0  0  0  0
   -3.3049   -0.2510   -5.3964 C   0  0  0  0  0  0  0  0  0  0  0  0
   -1.9530   -1.9230   -5.3268 H   0  0  0  0  0  0  0  0  0  0  0  0
    0.1208   -0.4803   -5.1699 H   0  0  0  0  0  0  0  0  0  0  0  0
   -2.4129    3.0360   -5.2668 H   0  0  0  0  0  0  0  0  0  0  0  0
   -4.4246    1.6183   -5.4576 H   0  0  0  0  0  0  0  0  0  0  0  0
    0.0239    2.1568   -5.0655 N   0  0  0  0  0  0  0  0  0  0  0  0
    0.8356    2.8996   -4.8819 N   0  0  0  0  0  0  0  0  0  0  0  0
    2.2775    0.0775   -6.7629 S   0  0  0  0  0  0  0  0  0  0  0  0
    3.7447    1.1667   -6.4280 C   0  0  0  0  0  0  0  0  0  0  0  0
    2.7038   -0.8020   -7.8563 O   0  0  0  0  0  0  0  0  0  0  0  0
    1.2086    1.0669   -7.0957 O   0  0  0  0  0  0  0  0  0  0  0  0
    2.0478   -0.5700   -5.4378 O   0  0  0  0  0  0  0  0  0  0  0  0
    3.4524    2.0487   -5.4402 F   0  0  0  0  0  0  0  0  0  0  0  0
    4.8058    0.4509   -6.0368 F   0  0  0  0  0  0  0  0  0  0  0  0
    4.0825    1.8722   -7.5161 F   0  0  0  0  0  0  0  0  0  0  0  0
   -4.3276   -1.1085   -5.4949 O   0  0  0  0  0  0  0  0  0  0  0  0
   -5.6640   -0.6133   -5.6198 C   0  0  0  0  0  0  0  0  0  0  0  0
   -6.2964   -1.4970   -5.6920 H   0  0  0  0  0  0  0  0  0  0  0  0
   -5.7753   -0.0073   -6.5251 H   0  0  0  0  0  0  0  0  0  0  0  0
   -5.9513   -0.0284   -4.7390 H   0  0  0  0  0  0  0  0  0  0  0  0
  1  2  2  0  0  0  0
  2  3  1  0  0  0  0
  2  8  1  0  0  0  0
  3 11  1  0  0  0  0
  4  9  1  0  0  0  0
  4  3  2  0  0  0  0
  5  4  1  0  0  0  0
  6  5  2  0  0  0  0
  6  1  1  0  0  0  0
  7  1  1  0  0  0  0
 10  5  1  0  0  0  0
 11 12  1  0  0  0  0
 13 14  1  0  0  0  0
 13 17  1  0  0  0  0
 14 19  1  0  0  0  0
 14 18  1  0  0  0  0
 15 13  2  0  0  0  0
 16 13  2  0  0  0  0
 20 14  1  0  0  0  0
 21  6  1  0  0  0  0
 22 21  1  0  0  0  0
 22 25  1  0  0  0  0
 23 22  1  0  0  0  0
 24 22  1  0  0  0  0
M  RAD  3  11   2  12   3  17   2
M  END
