Coordinates from ORCA-job p-CH3O-Ph-N2-X-OTf-B3LYPG-6-31G_dp-scan-d09-49-n400
 OpenBabel08281821483D

 25 24  0  0  0  0  0  0  0  0999 V2000
   -2.1064   -0.8900   -5.2970 C   0  0  0  0  0  0  0  0  0  0  0  0
   -0.9650   -0.1542   -5.0701 C   0  0  0  0  0  0  0  0  0  0  0  0
   -1.0979    1.2480   -4.9569 C   0  0  0  0  0  0  0  0  0  0  0  0
   -2.3318    1.9031   -5.0705 C   0  0  0  0  0  0  0  0  0  0  0  0
   -3.4684    1.1493   -5.3099 C   0  0  0  0  0  0  0  0  0  0  0  0
   -3.3612   -0.2530   -5.4250 C   0  0  0  0  0  0  0  0  0  0  0  0
   -2.0618   -1.9685   -5.3979 H   0  0  0  0  0  0  0  0  0  0  0  0
    0.0175   -0.6027   -4.9752 H   0  0  0  0  0  0  0  0  0  0  0  0
   -2.3879    2.9824   -4.9796 H   0  0  0  0  0  0  0  0  0  0  0  0
   -4.4246    1.6464   -5.4084 H   0  0  0  0  0  0  0  0  0  0  0  0
    0.0355    1.9891   -4.7269 N   0  0  0  0  0  0  0  0  0  0  0  0
    1.1065    2.3019   -4.5814 N   0  0  0  0  0  0  0  0  0  0  0  0
    2.3313    0.1872   -6.4938 S   0  0  0  0  0  0  0  0  0  0  0  0
    3.7937    1.2721   -6.8578 C   0  0  0  0  0  0  0  0  0  0  0  0
    2.7087   -1.1486   -6.9684 O   0  0  0  0  0  0  0  0  0  0  0  0
    1.2014    0.8623   -7.1724 O   0  0  0  0  0  0  0  0  0  0  0  0
    2.2198    0.2919   -4.9886 O   0  0  0  0  0  0  0  0  0  0  0  0
    3.5604    2.5253   -6.4214 F   0  0  0  0  0  0  0  0  0  0  0  0
    4.8931    0.8124   -6.2486 F   0  0  0  0  0  0  0  0  0  0  0  0
    4.0247    1.3241   -8.1763 F   0  0  0  0  0  0  0  0  0  0  0  0
   -4.3980   -1.0717   -5.6526 O   0  0  0  0  0  0  0  0  0  0  0  0
   -5.7095   -0.5260   -5.8150 C   0  0  0  0  0  0  0  0  0  0  0  0
   -6.3624   -1.3811   -5.9852 H   0  0  0  0  0  0  0  0  0  0  0  0
   -5.7525    0.1456   -6.6793 H   0  0  0  0  0  0  0  0  0  0  0  0
   -6.0308    0.0050   -4.9121 H   0  0  0  0  0  0  0  0  0  0  0  0
  1  2  2  0  0  0  0
  2  8  1  0  0  0  0
  2  3  1  0  0  0  0
  3 11  1  0  0  0  0
  4  9  1  0  0  0  0
  4  3  2  0  0  0  0
  5  4  1  0  0  0  0
  6  5  2  0  0  0  0
  6  1  1  0  0  0  0
  7  1  1  0  0  0  0
 10  5  1  0  0  0  0
 11 12  1  0  0  0  0
 13 17  1  0  0  0  0
 14 13  1  0  0  0  0
 14 18  1  0  0  0  0
 14 19  1  0  0  0  0
 15 13  2  0  0  0  0
 16 13  2  0  0  0  0
 20 14  1  0  0  0  0
 21  6  1  0  0  0  0
 22 21  1  0  0  0  0
 22 25  1  0  0  0  0
 23 22  1  0  0  0  0
 24 22  1  0  0  0  0
M  RAD  3  11   2  12   3  17   2
M  END
