Coordinates from ORCA-job p-CH3O-Ph-N2-X-OTf-B3LYPG-6-31G_dp-scan-d09-49-n400
 OpenBabel08281821483D

 25 24  0  0  0  0  0  0  0  0999 V2000
   -2.0608   -0.9022   -5.2177 C   0  0  0  0  0  0  0  0  0  0  0  0
   -0.9062   -0.1678   -5.0678 C   0  0  0  0  0  0  0  0  0  0  0  0
   -1.0253    1.2386   -5.0731 C   0  0  0  0  0  0  0  0  0  0  0  0
   -2.2536    1.9037   -5.2368 C   0  0  0  0  0  0  0  0  0  0  0  0
   -3.3992    1.1459   -5.3960 C   0  0  0  0  0  0  0  0  0  0  0  0
   -3.3099   -0.2638   -5.3870 C   0  0  0  0  0  0  0  0  0  0  0  0
   -2.0303   -1.9861   -5.2273 H   0  0  0  0  0  0  0  0  0  0  0  0
    0.0858   -0.6053   -4.9655 H   0  0  0  0  0  0  0  0  0  0  0  0
   -2.2968    2.9874   -5.2452 H   0  0  0  0  0  0  0  0  0  0  0  0
   -4.3495    1.6457   -5.5299 H   0  0  0  0  0  0  0  0  0  0  0  0
    0.0901    2.0165   -4.8968 N   0  0  0  0  0  0  0  0  0  0  0  0
    0.9315    2.7126   -4.6737 N   0  0  0  0  0  0  0  0  0  0  0  0
    2.2234    0.1298   -6.6223 S   0  0  0  0  0  0  0  0  0  0  0  0
    3.7151    1.2359   -6.6654 C   0  0  0  0  0  0  0  0  0  0  0  0
    2.5741   -1.0190   -7.4649 O   0  0  0  0  0  0  0  0  0  0  0  0
    1.1357    1.0159   -7.1282 O   0  0  0  0  0  0  0  0  0  0  0  0
    2.0742   -0.1449   -5.1592 O   0  0  0  0  0  0  0  0  0  0  0  0
    3.4838    2.3513   -5.9342 F   0  0  0  0  0  0  0  0  0  0  0  0
    4.7907    0.6241   -6.1542 F   0  0  0  0  0  0  0  0  0  0  0  0
    3.9971    1.6182   -7.9182 F   0  0  0  0  0  0  0  0  0  0  0  0
   -4.3588   -1.0831   -5.5311 O   0  0  0  0  0  0  0  0  0  0  0  0
   -5.6662   -0.5373   -5.7306 C   0  0  0  0  0  0  0  0  0  0  0  0
   -6.3297   -1.3963   -5.8211 H   0  0  0  0  0  0  0  0  0  0  0  0
   -5.7081    0.0570   -6.6495 H   0  0  0  0  0  0  0  0  0  0  0  0
   -5.9728    0.0736   -4.8742 H   0  0  0  0  0  0  0  0  0  0  0  0
  1  2  2  0  0  0  0
  2  8  1  0  0  0  0
  3  2  1  0  0  0  0
  3 11  1  0  0  0  0
  4  3  2  0  0  0  0
  5  6  2  0  0  0  0
  5  4  1  0  0  0  0
  6  1  1  0  0  0  0
  7  1  1  0  0  0  0
  9  4  1  0  0  0  0
 10  5  1  0  0  0  0
 11 12  1  0  0  0  0
 13 17  1  0  0  0  0
 14 13  1  0  0  0  0
 14 19  1  0  0  0  0
 14 18  1  0  0  0  0
 15 13  2  0  0  0  0
 16 13  2  0  0  0  0
 20 14  1  0  0  0  0
 21  6  1  0  0  0  0
 22 21  1  0  0  0  0
 22 25  1  0  0  0  0
 23 22  1  0  0  0  0
 24 22  1  0  0  0  0
M  RAD  3  11   2  12   3  17   2
M  END
