Coordinates from ORCA-job p-CH3O-Ph-N2-X-OTf-B3LYPG-6-31G_dp-scan-d09-49-n400
 OpenBabel08281821483D

 25 25  0  0  0  0  0  0  0  0999 V2000
   -2.1506   -1.1816   -5.3782 C   0  0  0  0  0  0  0  0  0  0  0  0
   -0.8794   -0.6352   -5.3942 C   0  0  0  0  0  0  0  0  0  0  0  0
   -0.7341    0.7583   -5.4585 C   0  0  0  0  0  0  0  0  0  0  0  0
   -1.8537    1.5931   -5.5155 C   0  0  0  0  0  0  0  0  0  0  0  0
   -3.1317    1.0428   -5.4919 C   0  0  0  0  0  0  0  0  0  0  0  0
   -3.2855   -0.3510   -5.4256 C   0  0  0  0  0  0  0  0  0  0  0  0
   -2.2980   -2.2548   -5.3250 H   0  0  0  0  0  0  0  0  0  0  0  0
   -0.0051   -1.2724   -5.3576 H   0  0  0  0  0  0  0  0  0  0  0  0
   -1.7175    2.6678   -5.5742 H   0  0  0  0  0  0  0  0  0  0  0  0
   -3.9910    1.6999   -5.5336 H   0  0  0  0  0  0  0  0  0  0  0  0
    0.5674    1.3546   -5.4552 N   0  0  0  0  0  0  0  0  0  0  0  0
    0.8507    2.2927   -4.6654 N   0  0  0  0  0  0  0  0  0  0  0  0
    1.7548    1.0379   -6.9344 S   0  0  0  0  0  0  0  0  0  0  0  0
    3.4969    0.7030   -6.2262 C   0  0  0  0  0  0  0  0  0  0  0  0
    1.2915   -0.2826   -7.3593 O   0  0  0  0  0  0  0  0  0  0  0  0
    1.7391    2.1667   -7.8525 O   0  0  0  0  0  0  0  0  0  0  0  0
    2.2643    2.8647   -5.1217 O   0  0  0  0  0  0  0  0  0  0  0  0
    3.3840    0.2954   -4.9697 F   0  0  0  0  0  0  0  0  0  0  0  0
    3.9895   -0.2863   -6.9732 F   0  0  0  0  0  0  0  0  0  0  0  0
    4.2685    1.7605   -6.3346 F   0  0  0  0  0  0  0  0  0  0  0  0
   -4.4779   -0.9912   -5.4042 O   0  0  0  0  0  0  0  0  0  0  0  0
   -5.6726   -0.2179   -5.4472 C   0  0  0  0  0  0  0  0  0  0  0  0
   -6.4923   -0.9358   -5.4215 H   0  0  0  0  0  0  0  0  0  0  0  0
   -5.7350    0.3712   -6.3700 H   0  0  0  0  0  0  0  0  0  0  0  0
   -5.7481    0.4505   -4.5809 H   0  0  0  0  0  0  0  0  0  0  0  0
  1  7  1  0  0  0  0
  2  1  1  0  0  0  0
  2  8  1  0  0  0  0
  3 11  1  0  0  0  0
  3  2  2  0  0  0  0
  4  5  2  0  0  0  0
  4  3  1  0  0  0  0
  5  6  1  0  0  0  0
  6 21  1  0  0  0  0
  6  1  2  0  0  0  0
  9  4  1  0  0  0  0
 10  5  1  0  0  0  0
 11 12  1  0  0  0  0
 13 14  1  0  0  0  0
 13 11  1  0  0  0  0
 14 18  1  0  0  0  0
 15 13  2  0  0  0  0
 16 13  2  0  0  0  0
 17 12  1  0  0  0  0
 19 14  1  0  0  0  0
 20 14  1  0  0  0  0
 22 23  1  0  0  0  0
 22 21  1  0  0  0  0
 22 25  1  0  0  0  0
 24 22  1  0  0  0  0
M  RAD  2  12   2  17   2
M  END
