Coordinates from ORCA-job p-CH3O-Ph-N2-X-OTf-B3LYPG-6-31G_dp-scan-d09-49-n400
 OpenBabel08281821483D

 25 24  0  0  0  0  0  0  0  0999 V2000
   -2.1074   -0.8902   -5.2987 C   0  0  0  0  0  0  0  0  0  0  0  0
   -0.9659   -0.1546   -5.0719 C   0  0  0  0  0  0  0  0  0  0  0  0
   -1.0984    1.2475   -4.9575 C   0  0  0  0  0  0  0  0  0  0  0  0
   -2.3325    1.9025   -5.0696 C   0  0  0  0  0  0  0  0  0  0  0  0
   -3.4694    1.1490   -5.3090 C   0  0  0  0  0  0  0  0  0  0  0  0
   -3.3623   -0.2531   -5.4253 C   0  0  0  0  0  0  0  0  0  0  0  0
   -2.0629   -1.9687   -5.4004 H   0  0  0  0  0  0  0  0  0  0  0  0
    0.0165   -0.6035   -4.9779 H   0  0  0  0  0  0  0  0  0  0  0  0
   -2.3885    2.9818   -4.9777 H   0  0  0  0  0  0  0  0  0  0  0  0
   -4.4256    1.6462   -5.4063 H   0  0  0  0  0  0  0  0  0  0  0  0
    0.0349    1.9891   -4.7276 N   0  0  0  0  0  0  0  0  0  0  0  0
    1.1077    2.2974   -4.5834 N   0  0  0  0  0  0  0  0  0  0  0  0
    2.3329    0.1886   -6.4939 S   0  0  0  0  0  0  0  0  0  0  0  0
    3.7959    1.2727   -6.8578 C   0  0  0  0  0  0  0  0  0  0  0  0
    2.7117   -1.1487   -6.9630 O   0  0  0  0  0  0  0  0  0  0  0  0
    1.2040    0.8613   -7.1761 O   0  0  0  0  0  0  0  0  0  0  0  0
    2.2185    0.2972   -4.9887 O   0  0  0  0  0  0  0  0  0  0  0  0
    3.5618    2.5267   -6.4244 F   0  0  0  0  0  0  0  0  0  0  0  0
    4.8943    0.8142   -6.2459 F   0  0  0  0  0  0  0  0  0  0  0  0
    4.0289    1.3217   -8.1760 F   0  0  0  0  0  0  0  0  0  0  0  0
   -4.3993   -1.0717   -5.6529 O   0  0  0  0  0  0  0  0  0  0  0  0
   -5.7109   -0.5258   -5.8139 C   0  0  0  0  0  0  0  0  0  0  0  0
   -6.3640   -1.3806   -5.9844 H   0  0  0  0  0  0  0  0  0  0  0  0
   -5.7543    0.1466   -6.6775 H   0  0  0  0  0  0  0  0  0  0  0  0
   -6.0315    0.0045   -4.9103 H   0  0  0  0  0  0  0  0  0  0  0  0
  1  2  2  0  0  0  0
  2  8  1  0  0  0  0
  2  3  1  0  0  0  0
  3 11  1  0  0  0  0
  4  9  1  0  0  0  0
  4  3  2  0  0  0  0
  5  4  1  0  0  0  0
  6  5  2  0  0  0  0
  6  1  1  0  0  0  0
  7  1  1  0  0  0  0
 10  5  1  0  0  0  0
 11 12  1  0  0  0  0
 13 17  1  0  0  0  0
 14 13  1  0  0  0  0
 14 18  1  0  0  0  0
 14 19  1  0  0  0  0
 15 13  2  0  0  0  0
 16 13  2  0  0  0  0
 20 14  1  0  0  0  0
 21  6  1  0  0  0  0
 22 21  1  0  0  0  0
 22 25  1  0  0  0  0
 23 22  1  0  0  0  0
 24 22  1  0  0  0  0
M  RAD  3  11   2  12   3  17   2
M  END
