Coordinates from ORCA-job p-CH3O-Ph-N2-X-OTf-B3LYPG-6-31G_dp-scan-d09-49-n400
 OpenBabel08281821483D

 25 24  0  0  0  0  0  0  0  0999 V2000
   -2.0519   -0.8840   -5.2418 C   0  0  0  0  0  0  0  0  0  0  0  0
   -0.9024   -0.1380   -5.1098 C   0  0  0  0  0  0  0  0  0  0  0  0
   -1.0376    1.2671   -5.1102 C   0  0  0  0  0  0  0  0  0  0  0  0
   -2.2758    1.9200   -5.2507 C   0  0  0  0  0  0  0  0  0  0  0  0
   -3.4153    1.1501   -5.3924 C   0  0  0  0  0  0  0  0  0  0  0  0
   -3.3105   -0.2588   -5.3882 C   0  0  0  0  0  0  0  0  0  0  0  0
   -2.0099   -1.9674   -5.2540 H   0  0  0  0  0  0  0  0  0  0  0  0
    0.0969   -0.5670   -5.0262 H   0  0  0  0  0  0  0  0  0  0  0  0
   -2.3309    3.0032   -5.2551 H   0  0  0  0  0  0  0  0  0  0  0  0
   -4.3732    1.6397   -5.5087 H   0  0  0  0  0  0  0  0  0  0  0  0
    0.0716    2.0576   -4.9501 N   0  0  0  0  0  0  0  0  0  0  0  0
    0.9002    2.7734   -4.7405 N   0  0  0  0  0  0  0  0  0  0  0  0
    2.2390    0.1090   -6.6637 S   0  0  0  0  0  0  0  0  0  0  0  0
    3.7311    1.2138   -6.5996 C   0  0  0  0  0  0  0  0  0  0  0  0
    2.6021   -0.9676   -7.5916 O   0  0  0  0  0  0  0  0  0  0  0  0
    1.1599    1.0355   -7.1163 O   0  0  0  0  0  0  0  0  0  0  0  0
    2.0695   -0.2799   -5.2302 O   0  0  0  0  0  0  0  0  0  0  0  0
    3.4943    2.2637   -5.7775 F   0  0  0  0  0  0  0  0  0  0  0  0
    4.8021    0.5601   -6.1329 F   0  0  0  0  0  0  0  0  0  0  0  0
    4.0241    1.7014   -7.8126 F   0  0  0  0  0  0  0  0  0  0  0  0
   -4.3529   -1.0887   -5.5164 O   0  0  0  0  0  0  0  0  0  0  0  0
   -5.6695   -0.5570   -5.6917 C   0  0  0  0  0  0  0  0  0  0  0  0
   -6.3247   -1.4231   -5.7738 H   0  0  0  0  0  0  0  0  0  0  0  0
   -5.7337    0.0397   -6.6077 H   0  0  0  0  0  0  0  0  0  0  0  0
   -5.9682    0.0476   -4.8281 H   0  0  0  0  0  0  0  0  0  0  0  0
  1  2  2  0  0  0  0
  2  8  1  0  0  0  0
  3  2  1  0  0  0  0
  3 11  1  0  0  0  0
  4  3  2  0  0  0  0
  5  6  2  0  0  0  0
  5  4  1  0  0  0  0
  6  1  1  0  0  0  0
  7  1  1  0  0  0  0
  9  4  1  0  0  0  0
 10  5  1  0  0  0  0
 11 12  1  0  0  0  0
 13 14  1  0  0  0  0
 13 17  1  0  0  0  0
 14 19  1  0  0  0  0
 14 18  1  0  0  0  0
 15 13  2  0  0  0  0
 16 13  2  0  0  0  0
 20 14  1  0  0  0  0
 21  6  1  0  0  0  0
 22 21  1  0  0  0  0
 22 25  1  0  0  0  0
 23 22  1  0  0  0  0
 24 22  1  0  0  0  0
M  RAD  3  11   2  12   3  17   2
M  END
