Coordinates from ORCA-job p-CH3O-Ph-N2-X-OTf-B3LYPG-6-31G_dp-scan-d09-49-n400
 OpenBabel08281821483D

 25 24  0  0  0  0  0  0  0  0999 V2000
   -2.0632   -0.9092   -5.2132 C   0  0  0  0  0  0  0  0  0  0  0  0
   -0.9077   -0.1791   -5.0516 C   0  0  0  0  0  0  0  0  0  0  0  0
   -1.0220    1.2280   -5.0515 C   0  0  0  0  0  0  0  0  0  0  0  0
   -2.2469    1.8974   -5.2209 C   0  0  0  0  0  0  0  0  0  0  0  0
   -3.3938    1.1440   -5.3920 C   0  0  0  0  0  0  0  0  0  0  0  0
   -3.3091   -0.2659   -5.3887 C   0  0  0  0  0  0  0  0  0  0  0  0
   -2.0361   -1.9930   -5.2278 H   0  0  0  0  0  0  0  0  0  0  0  0
    0.0814   -0.6202   -4.9438 H   0  0  0  0  0  0  0  0  0  0  0  0
   -2.2866    2.9813   -5.2248 H   0  0  0  0  0  0  0  0  0  0  0  0
   -4.3415    1.6473   -5.5306 H   0  0  0  0  0  0  0  0  0  0  0  0
    0.0959    1.9991   -4.8654 N   0  0  0  0  0  0  0  0  0  0  0  0
    0.9502    2.6786   -4.6417 N   0  0  0  0  0  0  0  0  0  0  0  0
    2.2162    0.1422   -6.6063 S   0  0  0  0  0  0  0  0  0  0  0  0
    3.7080    1.2451   -6.6948 C   0  0  0  0  0  0  0  0  0  0  0  0
    2.5605   -1.0347   -7.4125 O   0  0  0  0  0  0  0  0  0  0  0  0
    1.1246    1.0111   -7.1318 O   0  0  0  0  0  0  0  0  0  0  0  0
    2.0773   -0.0855   -5.1335 O   0  0  0  0  0  0  0  0  0  0  0  0
    3.4837    2.3810   -5.9945 F   0  0  0  0  0  0  0  0  0  0  0  0
    4.7876    0.6469   -6.1756 F   0  0  0  0  0  0  0  0  0  0  0  0
    3.9790    1.5902   -7.9608 F   0  0  0  0  0  0  0  0  0  0  0  0
   -4.3593   -1.0813   -5.5442 O   0  0  0  0  0  0  0  0  0  0  0  0
   -5.6635   -0.5307   -5.7512 C   0  0  0  0  0  0  0  0  0  0  0  0
   -6.3290   -1.3873   -5.8497 H   0  0  0  0  0  0  0  0  0  0  0  0
   -5.6969    0.0669   -6.6682 H   0  0  0  0  0  0  0  0  0  0  0  0
   -5.9745    0.0779   -4.8948 H   0  0  0  0  0  0  0  0  0  0  0  0
  1  2  2  0  0  0  0
  2  3  1  0  0  0  0
  2  8  1  0  0  0  0
  3 11  1  0  0  0  0
  4  3  2  0  0  0  0
  5  6  2  0  0  0  0
  5  4  1  0  0  0  0
  6  1  1  0  0  0  0
  7  1  1  0  0  0  0
  9  4  1  0  0  0  0
 10  5  1  0  0  0  0
 11 12  1  0  0  0  0
 13 17  1  0  0  0  0
 14 13  1  0  0  0  0
 14 19  1  0  0  0  0
 14 18  1  0  0  0  0
 15 13  2  0  0  0  0
 16 13  2  0  0  0  0
 20 14  1  0  0  0  0
 21  6  1  0  0  0  0
 22 21  1  0  0  0  0
 22 25  1  0  0  0  0
 23 22  1  0  0  0  0
 24 22  1  0  0  0  0
M  RAD  3  11   2  12   3  17   2
M  END
