Coordinates from ORCA-job p-CH3O-Ph-N2-X-OTf-B3LYPG-6-31G_dp-scan-d09-49-n400
 OpenBabel08281821483D

 25 24  0  0  0  0  0  0  0  0999 V2000
   -2.1212   -0.8897   -5.3308 C   0  0  0  0  0  0  0  0  0  0  0  0
   -0.9790   -0.1511   -5.1133 C   0  0  0  0  0  0  0  0  0  0  0  0
   -1.1120    1.2488   -4.9796 C   0  0  0  0  0  0  0  0  0  0  0  0
   -2.3519    1.8962   -5.0623 C   0  0  0  0  0  0  0  0  0  0  0  0
   -3.4909    1.1417   -5.2925 C   0  0  0  0  0  0  0  0  0  0  0  0
   -3.3807   -0.2574   -5.4286 C   0  0  0  0  0  0  0  0  0  0  0  0
   -2.0738   -1.9668   -5.4451 H   0  0  0  0  0  0  0  0  0  0  0  0
    0.0037   -0.6014   -5.0381 H   0  0  0  0  0  0  0  0  0  0  0  0
   -2.4105    2.9738   -4.9544 H   0  0  0  0  0  0  0  0  0  0  0  0
   -4.4504    1.6366   -5.3669 H   0  0  0  0  0  0  0  0  0  0  0  0
    0.0176    2.0057   -4.7581 N   0  0  0  0  0  0  0  0  0  0  0  0
    1.1175    2.2477   -4.6454 N   0  0  0  0  0  0  0  0  0  0  0  0
    2.3483    0.2278   -6.5158 S   0  0  0  0  0  0  0  0  0  0  0  0
    3.8548    1.2657   -6.8346 C   0  0  0  0  0  0  0  0  0  0  0  0
    2.7172   -1.1349   -6.9105 O   0  0  0  0  0  0  0  0  0  0  0  0
    1.2660    0.9012   -7.2616 O   0  0  0  0  0  0  0  0  0  0  0  0
    2.1680    0.3809   -5.0119 O   0  0  0  0  0  0  0  0  0  0  0  0
    3.6362    2.5308   -6.4327 F   0  0  0  0  0  0  0  0  0  0  0  0
    4.9118    0.7863   -6.1697 F   0  0  0  0  0  0  0  0  0  0  0  0
    4.1400    1.2812   -8.1427 F   0  0  0  0  0  0  0  0  0  0  0  0
   -4.4186   -1.0787   -5.6495 O   0  0  0  0  0  0  0  0  0  0  0  0
   -5.7339   -0.5353   -5.7796 C   0  0  0  0  0  0  0  0  0  0  0  0
   -6.3878   -1.3897   -5.9503 H   0  0  0  0  0  0  0  0  0  0  0  0
   -5.7954    0.1491   -6.6328 H   0  0  0  0  0  0  0  0  0  0  0  0
   -6.0406   -0.0183   -4.8634 H   0  0  0  0  0  0  0  0  0  0  0  0
  1  2  1  0  0  0  0
  2  8  1  0  0  0  0
  2  3  2  0  0  0  0
  3 11  1  0  0  0  0
  4  3  1  0  0  0  0
  4  9  1  0  0  0  0
  5  4  2  0  0  0  0
  6  1  2  0  0  0  0
  6  5  1  0  0  0  0
  7  1  1  0  0  0  0
 10  5  1  0  0  0  0
 11 12  1  0  0  0  0
 13 17  1  0  0  0  0
 14 13  1  0  0  0  0
 14 18  1  0  0  0  0
 14 19  1  0  0  0  0
 15 13  2  0  0  0  0
 16 13  2  0  0  0  0
 20 14  1  0  0  0  0
 21  6  1  0  0  0  0
 22 21  1  0  0  0  0
 22 25  1  0  0  0  0
 23 22  1  0  0  0  0
 24 22  1  0  0  0  0
M  RAD  3  11   2  12   3  17   2
M  END
