Coordinates from ORCA-job p-CH3O-Ph-N2-X-OTf-B3LYPG-6-31G_dp-scan-d09-49-n400
 OpenBabel08281821483D

 25 24  0  0  0  0  0  0  0  0999 V2000
   -2.0665   -0.9129   -5.2101 C   0  0  0  0  0  0  0  0  0  0  0  0
   -0.9127   -0.1854   -5.0275 C   0  0  0  0  0  0  0  0  0  0  0  0
   -1.0257    1.2224   -5.0133 C   0  0  0  0  0  0  0  0  0  0  0  0
   -2.2472    1.8946   -5.1897 C   0  0  0  0  0  0  0  0  0  0  0  0
   -3.3928    1.1442   -5.3825 C   0  0  0  0  0  0  0  0  0  0  0  0
   -3.3095   -0.2657   -5.3935 C   0  0  0  0  0  0  0  0  0  0  0  0
   -2.0403   -1.9965   -5.2367 H   0  0  0  0  0  0  0  0  0  0  0  0
    0.0731   -0.6293   -4.9108 H   0  0  0  0  0  0  0  0  0  0  0  0
   -2.2854    2.9785   -5.1823 H   0  0  0  0  0  0  0  0  0  0  0  0
   -4.3385    1.6497   -5.5270 H   0  0  0  0  0  0  0  0  0  0  0  0
    0.0972    1.9793   -4.8103 N   0  0  0  0  0  0  0  0  0  0  0  0
    0.9900    2.6065   -4.5849 N   0  0  0  0  0  0  0  0  0  0  0  0
    2.2144    0.1552   -6.5744 S   0  0  0  0  0  0  0  0  0  0  0  0
    3.7001    1.2560   -6.7481 C   0  0  0  0  0  0  0  0  0  0  0  0
    2.5487   -1.0633   -7.3211 O   0  0  0  0  0  0  0  0  0  0  0  0
    1.1086    0.9894   -7.1233 O   0  0  0  0  0  0  0  0  0  0  0  0
    2.1030    0.0040   -5.0885 O   0  0  0  0  0  0  0  0  0  0  0  0
    3.4875    2.4238   -6.0999 F   0  0  0  0  0  0  0  0  0  0  0  0
    4.7919    0.6850   -6.2237 F   0  0  0  0  0  0  0  0  0  0  0  0
    3.9430    1.5381   -8.0354 F   0  0  0  0  0  0  0  0  0  0  0  0
   -4.3585   -1.0784   -5.5701 O   0  0  0  0  0  0  0  0  0  0  0  0
   -5.6596   -0.5243   -5.7873 C   0  0  0  0  0  0  0  0  0  0  0  0
   -6.3246   -1.3792   -5.9018 H   0  0  0  0  0  0  0  0  0  0  0  0
   -5.6815    0.0820   -6.6989 H   0  0  0  0  0  0  0  0  0  0  0  0
   -5.9802    0.0764   -4.9289 H   0  0  0  0  0  0  0  0  0  0  0  0
  1  2  2  0  0  0  0
  2  3  1  0  0  0  0
  2  8  1  0  0  0  0
  3 11  1  0  0  0  0
  4  9  1  0  0  0  0
  4  3  2  0  0  0  0
  5  4  1  0  0  0  0
  6  5  2  0  0  0  0
  6  1  1  0  0  0  0
  7  1  1  0  0  0  0
 10  5  1  0  0  0  0
 11 12  1  0  0  0  0
 13 17  1  0  0  0  0
 14 13  1  0  0  0  0
 14 19  1  0  0  0  0
 14 18  1  0  0  0  0
 15 13  2  0  0  0  0
 16 13  2  0  0  0  0
 20 14  1  0  0  0  0
 21  6  1  0  0  0  0
 22 21  1  0  0  0  0
 22 25  1  0  0  0  0
 23 22  1  0  0  0  0
 24 22  1  0  0  0  0
M  RAD  3  11   2  12   3  17   2
M  END
