Coordinates from ORCA-job p-CH3O-Ph-N2-X-OTf-B3LYPG-6-31G_dp-scan-d09-49-n400
 OpenBabel08281821483D

 25 24  0  0  0  0  0  0  0  0999 V2000
   -1.9862   -0.7986   -5.3722 C   0  0  0  0  0  0  0  0  0  0  0  0
   -0.8712    0.0089   -5.3228 C   0  0  0  0  0  0  0  0  0  0  0  0
   -1.0883    1.4039   -5.2938 C   0  0  0  0  0  0  0  0  0  0  0  0
   -2.3710    1.9860   -5.3208 C   0  0  0  0  0  0  0  0  0  0  0  0
   -3.4721    1.1540   -5.3810 C   0  0  0  0  0  0  0  0  0  0  0  0
   -3.2860   -0.2474   -5.4069 C   0  0  0  0  0  0  0  0  0  0  0  0
   -1.8819   -1.8776   -5.4031 H   0  0  0  0  0  0  0  0  0  0  0  0
    0.1482   -0.3922   -5.3315 H   0  0  0  0  0  0  0  0  0  0  0  0
   -2.4876    3.0644   -5.3032 H   0  0  0  0  0  0  0  0  0  0  0  0
   -4.4628    1.5883   -5.4107 H   0  0  0  0  0  0  0  0  0  0  0  0
   -0.0210    2.2607   -5.2142 N   0  0  0  0  0  0  0  0  0  0  0  0
    0.7741    3.0313   -5.0782 N   0  0  0  0  0  0  0  0  0  0  0  0
    2.3160    0.0854   -6.8919 S   0  0  0  0  0  0  0  0  0  0  0  0
    3.7151    1.0975   -6.2052 C   0  0  0  0  0  0  0  0  0  0  0  0
    2.8720   -0.5598   -8.0845 O   0  0  0  0  0  0  0  0  0  0  0  0
    1.2674    1.1221   -7.1354 O   0  0  0  0  0  0  0  0  0  0  0  0
    1.9707   -0.8088   -5.7497 O   0  0  0  0  0  0  0  0  0  0  0  0
    3.2889    1.8055   -5.1263 F   0  0  0  0  0  0  0  0  0  0  0  0
    4.7332    0.3255   -5.8091 F   0  0  0  0  0  0  0  0  0  0  0  0
    4.1707    1.9757   -7.1095 F   0  0  0  0  0  0  0  0  0  0  0  0
   -4.2862   -1.1342   -5.4640 O   0  0  0  0  0  0  0  0  0  0  0  0
   -5.6411   -0.6792   -5.5266 C   0  0  0  0  0  0  0  0  0  0  0  0
   -6.2492   -1.5812   -5.5775 H   0  0  0  0  0  0  0  0  0  0  0  0
   -5.8103   -0.0714   -6.4218 H   0  0  0  0  0  0  0  0  0  0  0  0
   -5.9069   -0.1086   -4.6300 H   0  0  0  0  0  0  0  0  0  0  0  0
  1  2  2  0  0  0  0
  2  3  1  0  0  0  0
  3 11  1  0  0  0  0
  4  9  1  0  0  0  0
  4  3  2  0  0  0  0
  5  4  1  0  0  0  0
  6  5  2  0  0  0  0
  6  1  1  0  0  0  0
  7  1  1  0  0  0  0
  8  2  1  0  0  0  0
 10  5  1  0  0  0  0
 11 12  1  0  0  0  0
 13 14  1  0  0  0  0
 13 17  1  0  0  0  0
 14 19  1  0  0  0  0
 14 18  1  0  0  0  0
 15 13  2  0  0  0  0
 16 13  2  0  0  0  0
 20 14  1  0  0  0  0
 21  6  1  0  0  0  0
 22 21  1  0  0  0  0
 22 25  1  0  0  0  0
 23 22  1  0  0  0  0
 24 22  1  0  0  0  0
M  RAD  3  11   2  12   3  17   2
M  END
