Coordinates from ORCA-job p-CH3O-Ph-N2-X-OTf-B3LYPG-6-31G_dp-scan-d09-49-n400
 OpenBabel08281821483D

 25 24  0  0  0  0  0  0  0  0999 V2000
   -1.9186   -0.7493   -5.5099 C   0  0  0  0  0  0  0  0  0  0  0  0
   -0.8254    0.0886   -5.5616 C   0  0  0  0  0  0  0  0  0  0  0  0
   -1.0754    1.4768   -5.5063 C   0  0  0  0  0  0  0  0  0  0  0  0
   -2.3736    2.0192   -5.4067 C   0  0  0  0  0  0  0  0  0  0  0  0
   -3.4524    1.1581   -5.3676 C   0  0  0  0  0  0  0  0  0  0  0  0
   -3.2310   -0.2374   -5.4192 C   0  0  0  0  0  0  0  0  0  0  0  0
   -1.7839   -1.8242   -5.5561 H   0  0  0  0  0  0  0  0  0  0  0  0
    0.1873   -0.3102   -5.6652 H   0  0  0  0  0  0  0  0  0  0  0  0
   -2.5184    3.0937   -5.3701 H   0  0  0  0  0  0  0  0  0  0  0  0
   -4.4527    1.5653   -5.2993 H   0  0  0  0  0  0  0  0  0  0  0  0
   -0.0438    2.3831   -5.5178 N   0  0  0  0  0  0  0  0  0  0  0  0
    0.6804    3.2293   -5.4450 N   0  0  0  0  0  0  0  0  0  0  0  0
    2.3936    0.1324   -7.0814 S   0  0  0  0  0  0  0  0  0  0  0  0
    3.5274    0.9498   -5.8551 C   0  0  0  0  0  0  0  0  0  0  0  0
    3.2380   -0.1530   -8.2434 O   0  0  0  0  0  0  0  0  0  0  0  0
    1.3562    1.1947   -7.2721 O   0  0  0  0  0  0  0  0  0  0  0  0
    1.8770   -1.0393   -6.3219 O   0  0  0  0  0  0  0  0  0  0  0  0
    2.8046    1.3786   -4.7825 F   0  0  0  0  0  0  0  0  0  0  0  0
    4.4674    0.1134   -5.4039 F   0  0  0  0  0  0  0  0  0  0  0  0
    4.1291    2.0238   -6.3850 F   0  0  0  0  0  0  0  0  0  0  0  0
   -4.2070   -1.1521   -5.3879 O   0  0  0  0  0  0  0  0  0  0  0  0
   -5.5735   -0.7347   -5.3163 C   0  0  0  0  0  0  0  0  0  0  0  0
   -6.1588   -1.6530   -5.3128 H   0  0  0  0  0  0  0  0  0  0  0  0
   -5.8461   -0.1296   -6.1877 H   0  0  0  0  0  0  0  0  0  0  0  0
   -5.7662   -0.1739   -4.3952 H   0  0  0  0  0  0  0  0  0  0  0  0
  1  6  1  0  0  0  0
  2  1  2  0  0  0  0
  2  3  1  0  0  0  0
  3  4  2  0  0  0  0
  4  9  1  0  0  0  0
  4  5  1  0  0  0  0
  5 10  1  0  0  0  0
  6 21  1  0  0  0  0
  6  5  2  0  0  0  0
  7  1  1  0  0  0  0
  8  2  1  0  0  0  0
 11  3  1  0  0  0  0
 11 12  1  0  0  0  0
 13 17  1  0  0  0  0
 13 14  1  0  0  0  0
 14 19  1  0  0  0  0
 14 18  1  0  0  0  0
 15 13  2  0  0  0  0
 16 13  2  0  0  0  0
 20 14  1  0  0  0  0
 21 22  1  0  0  0  0
 22 23  1  0  0  0  0
 22 25  1  0  0  0  0
 24 22  1  0  0  0  0
M  RAD  3  11   2  12   3  17   2
M  END
