Coordinates from ORCA-job p-CH3O-Ph-N2-X-OTf-B3LYPG-6-31G_dp-scan-d09-49-n400
 OpenBabel08281821483D

 25 24  0  0  0  0  0  0  0  0999 V2000
   -1.8804   -0.7221   -5.5556 C   0  0  0  0  0  0  0  0  0  0  0  0
   -0.8005    0.1284   -5.6571 C   0  0  0  0  0  0  0  0  0  0  0  0
   -1.0644    1.5141   -5.6055 C   0  0  0  0  0  0  0  0  0  0  0  0
   -2.3654    2.0406   -5.4597 C   0  0  0  0  0  0  0  0  0  0  0  0
   -3.4309    1.1670   -5.3696 C   0  0  0  0  0  0  0  0  0  0  0  0
   -3.1945   -0.2261   -5.4166 C   0  0  0  0  0  0  0  0  0  0  0  0
   -1.7328   -1.7955   -5.5972 H   0  0  0  0  0  0  0  0  0  0  0  0
    0.2087   -0.2644   -5.7955 H   0  0  0  0  0  0  0  0  0  0  0  0
   -2.5226    3.1135   -5.4275 H   0  0  0  0  0  0  0  0  0  0  0  0
   -4.4326    1.5630   -5.2650 H   0  0  0  0  0  0  0  0  0  0  0  0
   -0.0497    2.4377   -5.6674 N   0  0  0  0  0  0  0  0  0  0  0  0
    0.6522    3.3051   -5.6386 N   0  0  0  0  0  0  0  0  0  0  0  0
    2.4277    0.1610   -7.1492 S   0  0  0  0  0  0  0  0  0  0  0  0
    3.3959    0.8554   -5.7213 C   0  0  0  0  0  0  0  0  0  0  0  0
    3.4082   -0.0146   -8.2224 O   0  0  0  0  0  0  0  0  0  0  0  0
    1.4145    1.2432   -7.3575 O   0  0  0  0  0  0  0  0  0  0  0  0
    1.8344   -1.0734   -6.5673 O   0  0  0  0  0  0  0  0  0  0  0  0
    2.5418    1.1745   -4.7071 F   0  0  0  0  0  0  0  0  0  0  0  0
    4.2875   -0.0173   -5.2420 F   0  0  0  0  0  0  0  0  0  0  0  0
    4.0407    1.9801   -6.0640 F   0  0  0  0  0  0  0  0  0  0  0  0
   -4.1568   -1.1523   -5.3371 O   0  0  0  0  0  0  0  0  0  0  0  0
   -5.5241   -0.7507   -5.2106 C   0  0  0  0  0  0  0  0  0  0  0  0
   -6.0970   -1.6760   -5.1716 H   0  0  0  0  0  0  0  0  0  0  0  0
   -5.8421   -0.1594   -6.0762 H   0  0  0  0  0  0  0  0  0  0  0  0
   -5.6835   -0.1816   -4.2884 H   0  0  0  0  0  0  0  0  0  0  0  0
  1  6  2  0  0  0  0
  2  3  2  0  0  0  0
  2  1  1  0  0  0  0
  3  4  1  0  0  0  0
  4  9  1  0  0  0  0
  4  5  2  0  0  0  0
  5 10  1  0  0  0  0
  6  5  1  0  0  0  0
  6 21  1  0  0  0  0
  7  1  1  0  0  0  0
  8  2  1  0  0  0  0
 11 12  1  0  0  0  0
 11  3  1  0  0  0  0
 13 17  1  0  0  0  0
 13 14  1  0  0  0  0
 14 19  1  0  0  0  0
 14 18  1  0  0  0  0
 15 13  2  0  0  0  0
 16 13  2  0  0  0  0
 20 14  1  0  0  0  0
 21 22  1  0  0  0  0
 22 23  1  0  0  0  0
 22 25  1  0  0  0  0
 24 22  1  0  0  0  0
M  RAD  3  11   2  12   3  17   2
M  END
