Coordinates from ORCA-job p-CH3O-Ph-N2-X-OTf-B3LYPG-6-31G_dp-scan-d09-49-n400
 OpenBabel08281821483D

 25 24  0  0  0  0  0  0  0  0999 V2000
   -2.1616   -0.8779   -5.4114 C   0  0  0  0  0  0  0  0  0  0  0  0
   -1.0219   -0.1188   -5.2513 C   0  0  0  0  0  0  0  0  0  0  0  0
   -1.1682    1.2770   -5.0927 C   0  0  0  0  0  0  0  0  0  0  0  0
   -2.4262    1.8941   -5.0930 C   0  0  0  0  0  0  0  0  0  0  0  0
   -3.5648    1.1215   -5.2617 C   0  0  0  0  0  0  0  0  0  0  0  0
   -3.4371   -0.2723   -5.4221 C   0  0  0  0  0  0  0  0  0  0  0  0
   -2.0999   -1.9527   -5.5405 H   0  0  0  0  0  0  0  0  0  0  0  0
   -0.0312   -0.5568   -5.2396 H   0  0  0  0  0  0  0  0  0  0  0  0
   -2.4983    2.9690   -4.9671 H   0  0  0  0  0  0  0  0  0  0  0  0
   -4.5361    1.5989   -5.2692 H   0  0  0  0  0  0  0  0  0  0  0  0
   -0.0548    2.0826   -4.9272 N   0  0  0  0  0  0  0  0  0  0  0  0
    1.0752    2.2512   -4.8923 N   0  0  0  0  0  0  0  0  0  0  0  0
    2.4056    0.3502   -6.6584 S   0  0  0  0  0  0  0  0  0  0  0  0
    4.0575    1.1991   -6.6757 C   0  0  0  0  0  0  0  0  0  0  0  0
    2.6688   -1.0482   -7.0034 O   0  0  0  0  0  0  0  0  0  0  0  0
    1.5432    1.1549   -7.5366 O   0  0  0  0  0  0  0  0  0  0  0  0
    1.9994    0.4982   -5.1819 O   0  0  0  0  0  0  0  0  0  0  0  0
    3.9243    2.4686   -6.2612 F   0  0  0  0  0  0  0  0  0  0  0  0
    4.9166    0.5715   -5.8662 F   0  0  0  0  0  0  0  0  0  0  0  0
    4.5568    1.2036   -7.9168 F   0  0  0  0  0  0  0  0  0  0  0  0
   -4.4713   -1.1137   -5.5887 O   0  0  0  0  0  0  0  0  0  0  0  0
   -5.8015   -0.5949   -5.6203 C   0  0  0  0  0  0  0  0  0  0  0  0
   -6.4500   -1.4587   -5.7621 H   0  0  0  0  0  0  0  0  0  0  0  0
   -5.9342    0.1030   -6.4543 H   0  0  0  0  0  0  0  0  0  0  0  0
   -6.0559   -0.0992   -4.6766 H   0  0  0  0  0  0  0  0  0  0  0  0
  1  2  1  0  0  0  0
  2  8  1  0  0  0  0
  2  3  2  0  0  0  0
  3 11  1  0  0  0  0
  4  3  1  0  0  0  0
  4  9  1  0  0  0  0
  5  4  2  0  0  0  0
  6  1  2  0  0  0  0
  6  5  1  0  0  0  0
  7  1  1  0  0  0  0
 10  5  1  0  0  0  0
 11 12  2  0  0  0  0
 13 17  1  0  0  0  0
 14 13  1  0  0  0  0
 14 18  1  0  0  0  0
 14 19  1  0  0  0  0
 15 13  2  0  0  0  0
 16 13  2  0  0  0  0
 20 14  1  0  0  0  0
 21  6  1  0  0  0  0
 22 21  1  0  0  0  0
 22 25  1  0  0  0  0
 23 22  1  0  0  0  0
 24 22  1  0  0  0  0
M  RAD  2  12   2  17   2
M  END
