Coordinates from ORCA-job p-CH3O-Ph-N2-X-OTf-B3LYPG-6-31G_dp-scan-d09-49-n400
 OpenBabel08281821483D

 25 25  0  0  0  0  0  0  0  0999 V2000
   -1.9640   -0.8084   -4.4054 C   0  0  0  0  0  0  0  0  0  0  0  0
   -0.7073   -0.2422   -4.5608 C   0  0  0  0  0  0  0  0  0  0  0  0
   -0.5148    0.8537   -5.4201 C   0  0  0  0  0  0  0  0  0  0  0  0
   -1.6151    1.3675   -6.1192 C   0  0  0  0  0  0  0  0  0  0  0  0
   -2.8774    0.7920   -5.9832 C   0  0  0  0  0  0  0  0  0  0  0  0
   -3.0592   -0.2977   -5.1195 C   0  0  0  0  0  0  0  0  0  0  0  0
   -2.1240   -1.6550   -3.7459 H   0  0  0  0  0  0  0  0  0  0  0  0
    0.1464   -0.6462   -4.0262 H   0  0  0  0  0  0  0  0  0  0  0  0
   -1.4751    2.2108   -6.7859 H   0  0  0  0  0  0  0  0  0  0  0  0
   -3.7077    1.2035   -6.5437 H   0  0  0  0  0  0  0  0  0  0  0  0
    0.7709    1.4452   -5.4776 N   0  0  0  0  0  0  0  0  0  0  0  0
    1.0802    2.5376   -4.0377 N   0  0  0  0  0  0  0  0  0  0  0  0
    1.6092    1.6711   -6.8674 S   0  0  0  0  0  0  0  0  0  0  0  0
    2.6320    0.1100   -6.9635 C   0  0  0  0  0  0  0  0  0  0  0  0
    0.7766    1.6627   -8.0689 O   0  0  0  0  0  0  0  0  0  0  0  0
    2.5634    2.7538   -6.6123 O   0  0  0  0  0  0  0  0  0  0  0  0
    2.0054    2.9891   -3.9957 O   0  0  0  0  0  0  0  0  0  0  0  0
    1.8266   -0.9570   -6.9944 F   0  0  0  0  0  0  0  0  0  0  0  0
    3.3825    0.1312   -8.0660 F   0  0  0  0  0  0  0  0  0  0  0  0
    3.4280    0.0232   -5.8911 F   0  0  0  0  0  0  0  0  0  0  0  0
   -4.2485   -0.9253   -4.9048 O   0  0  0  0  0  0  0  0  0  0  0  0
   -5.3913   -0.4697   -5.6143 C   0  0  0  0  0  0  0  0  0  0  0  0
   -6.2154   -1.1109   -5.2993 H   0  0  0  0  0  0  0  0  0  0  0  0
   -5.2556   -0.5612   -6.6995 H   0  0  0  0  0  0  0  0  0  0  0  0
   -5.6316    0.5724   -5.3676 H   0  0  0  0  0  0  0  0  0  0  0  0
  1  7  1  0  0  0  0
  2  1  1  0  0  0  0
  2  8  1  0  0  0  0
  3  2  2  0  0  0  0
  4  5  2  0  0  0  0
  4  3  1  0  0  0  0
  5  6  1  0  0  0  0
  6 21  1  0  0  0  0
  6  1  2  0  0  0  0
  9  4  1  0  0  0  0
 10  5  1  0  0  0  0
 11  3  1  0  0  0  0
 11 12  1  0  0  0  0
 12 17  2  0  0  0  0
 13 16  2  0  0  0  0
 13 11  1  0  0  0  0
 14 13  1  0  0  0  0
 14 20  1  0  0  0  0
 15 13  2  0  0  0  0
 18 14  1  0  0  0  0
 19 14  1  0  0  0  0
 22 25  1  0  0  0  0
 22 23  1  0  0  0  0
 22 21  1  0  0  0  0
 24 22  1  0  0  0  0
M  END
