Coordinates from ORCA-job p-CH3O-Ph-N2-X-OTf-B3LYPG-6-31G_dp-scan-d09-49-n400
 OpenBabel08281821483D

 25 25  0  0  0  0  0  0  0  0999 V2000
   -1.9902   -1.0935   -5.0806 C   0  0  0  0  0  0  0  0  0  0  0  0
   -0.7415   -0.5003   -5.1674 C   0  0  0  0  0  0  0  0  0  0  0  0
   -0.6351    0.8532   -5.5111 C   0  0  0  0  0  0  0  0  0  0  0  0
   -1.7811    1.6040   -5.7675 C   0  0  0  0  0  0  0  0  0  0  0  0
   -3.0425    1.0172   -5.6679 C   0  0  0  0  0  0  0  0  0  0  0  0
   -3.1504   -0.3380   -5.3266 C   0  0  0  0  0  0  0  0  0  0  0  0
   -2.0999   -2.1395   -4.8168 H   0  0  0  0  0  0  0  0  0  0  0  0
    0.1573   -1.0750   -4.9732 H   0  0  0  0  0  0  0  0  0  0  0  0
   -1.6874    2.6505   -6.0383 H   0  0  0  0  0  0  0  0  0  0  0  0
   -3.9223    1.6169   -5.8633 H   0  0  0  0  0  0  0  0  0  0  0  0
    0.6586    1.4747   -5.5709 N   0  0  0  0  0  0  0  0  0  0  0  0
    0.9198    2.4575   -4.6007 N   0  0  0  0  0  0  0  0  0  0  0  0
    1.6437    1.2751   -7.0232 S   0  0  0  0  0  0  0  0  0  0  0  0
    3.1330    0.3517   -6.3413 C   0  0  0  0  0  0  0  0  0  0  0  0
    0.9347    0.3184   -7.8617 O   0  0  0  0  0  0  0  0  0  0  0  0
    2.0946    2.5674   -7.5143 O   0  0  0  0  0  0  0  0  0  0  0  0
    1.9669    3.0169   -4.6925 O   0  0  0  0  0  0  0  0  0  0  0  0
    2.7076   -0.7550   -5.7244 F   0  0  0  0  0  0  0  0  0  0  0  0
    3.9026    0.0192   -7.3748 F   0  0  0  0  0  0  0  0  0  0  0  0
    3.8173    1.1024   -5.4895 F   0  0  0  0  0  0  0  0  0  0  0  0
   -4.3232   -1.0118   -5.2067 O   0  0  0  0  0  0  0  0  0  0  0  0
   -5.5379   -0.3122   -5.4463 C   0  0  0  0  0  0  0  0  0  0  0  0
   -6.3365   -1.0383   -5.2903 H   0  0  0  0  0  0  0  0  0  0  0  0
   -5.5878    0.0659   -6.4746 H   0  0  0  0  0  0  0  0  0  0  0  0
   -5.6661    0.5228   -4.7464 H   0  0  0  0  0  0  0  0  0  0  0  0
  1  7  1  0  0  0  0
  2  1  1  0  0  0  0
  2  8  1  0  0  0  0
  3  2  2  0  0  0  0
  4  5  2  0  0  0  0
  4  3  1  0  0  0  0
  5  6  1  0  0  0  0
  6 21  1  0  0  0  0
  6  1  2  0  0  0  0
  9  4  1  0  0  0  0
 10  5  1  0  0  0  0
 11  3  1  0  0  0  0
 11 12  1  0  0  0  0
 13 14  1  0  0  0  0
 13 11  1  0  0  0  0
 14 18  1  0  0  0  0
 14 20  1  0  0  0  0
 15 13  2  0  0  0  0
 16 13  2  0  0  0  0
 17 12  2  0  0  0  0
 19 14  1  0  0  0  0
 22 23  1  0  0  0  0
 22 21  1  0  0  0  0
 22 25  1  0  0  0  0
 24 22  1  0  0  0  0
M  END
