Coordinates from ORCA-job p-CH3O-Ph-N2-X-OTf-B3LYPG-6-31G_dp-scan-d09-49-n400
 OpenBabel08281821483D

 25 24  0  0  0  0  0  0  0  0999 V2000
   -1.9890   -0.8010   -5.3683 C   0  0  0  0  0  0  0  0  0  0  0  0
   -0.8729    0.0046   -5.3161 C   0  0  0  0  0  0  0  0  0  0  0  0
   -1.0877    1.4001   -5.2878 C   0  0  0  0  0  0  0  0  0  0  0  0
   -2.3693    1.9843   -5.3181 C   0  0  0  0  0  0  0  0  0  0  0  0
   -3.4716    1.1541   -5.3810 C   0  0  0  0  0  0  0  0  0  0  0  0
   -3.2878   -0.2476   -5.4064 C   0  0  0  0  0  0  0  0  0  0  0  0
   -1.8865   -1.8802   -5.3988 H   0  0  0  0  0  0  0  0  0  0  0  0
    0.1463   -0.3972   -5.3220 H   0  0  0  0  0  0  0  0  0  0  0  0
   -2.4842    3.0628   -5.3008 H   0  0  0  0  0  0  0  0  0  0  0  0
   -4.4616    1.5900   -5.4133 H   0  0  0  0  0  0  0  0  0  0  0  0
   -0.0190    2.2548   -5.2055 N   0  0  0  0  0  0  0  0  0  0  0  0
    0.7772    3.0239   -5.0670 N   0  0  0  0  0  0  0  0  0  0  0  0
    2.3141    0.0843   -6.8840 S   0  0  0  0  0  0  0  0  0  0  0  0
    3.7192    1.1022   -6.2184 C   0  0  0  0  0  0  0  0  0  0  0  0
    2.8614   -0.5755   -8.0727 O   0  0  0  0  0  0  0  0  0  0  0  0
    1.2647    1.1190   -7.1324 O   0  0  0  0  0  0  0  0  0  0  0  0
    1.9756   -0.7961   -5.7290 O   0  0  0  0  0  0  0  0  0  0  0  0
    3.3021    1.8223   -5.1442 F   0  0  0  0  0  0  0  0  0  0  0  0
    4.7392    0.3330   -5.8217 F   0  0  0  0  0  0  0  0  0  0  0  0
    4.1691    1.9698   -7.1356 F   0  0  0  0  0  0  0  0  0  0  0  0
   -4.2893   -1.1329   -5.4660 O   0  0  0  0  0  0  0  0  0  0  0  0
   -5.6433   -0.6756   -5.5322 C   0  0  0  0  0  0  0  0  0  0  0  0
   -6.2527   -1.5767   -5.5845 H   0  0  0  0  0  0  0  0  0  0  0  0
   -5.8092   -0.0677   -6.4279 H   0  0  0  0  0  0  0  0  0  0  0  0
   -5.9105   -0.1045   -4.6363 H   0  0  0  0  0  0  0  0  0  0  0  0
  1  2  2  0  0  0  0
  2  3  1  0  0  0  0
  3 11  1  0  0  0  0
  4  9  1  0  0  0  0
  4  3  2  0  0  0  0
  5  4  1  0  0  0  0
  6  5  2  0  0  0  0
  6  1  1  0  0  0  0
  7  1  1  0  0  0  0
  8  2  1  0  0  0  0
 10  5  1  0  0  0  0
 11 12  1  0  0  0  0
 13 14  1  0  0  0  0
 13 17  1  0  0  0  0
 14 19  1  0  0  0  0
 14 18  1  0  0  0  0
 15 13  2  0  0  0  0
 16 13  2  0  0  0  0
 20 14  1  0  0  0  0
 21  6  1  0  0  0  0
 22 21  1  0  0  0  0
 22 25  1  0  0  0  0
 23 22  1  0  0  0  0
 24 22  1  0  0  0  0
M  RAD  3  11   2  12   3  17   2
M  END
