Coordinates from ORCA-job p-CH3O-Ph-N2-X-OTf-B3LYPG-6-31G_dp-scan-d09-49-n400
 OpenBabel08281821483D

 25 24  0  0  0  0  0  0  0  0999 V2000
   -2.0495   -0.8798   -5.2461 C   0  0  0  0  0  0  0  0  0  0  0  0
   -0.9015   -0.1309   -5.1171 C   0  0  0  0  0  0  0  0  0  0  0  0
   -1.0404    1.2738   -5.1165 C   0  0  0  0  0  0  0  0  0  0  0  0
   -2.2806    1.9237   -5.2532 C   0  0  0  0  0  0  0  0  0  0  0  0
   -3.4185    1.1509   -5.3921 C   0  0  0  0  0  0  0  0  0  0  0  0
   -3.3101   -0.2578   -5.3886 C   0  0  0  0  0  0  0  0  0  0  0  0
   -2.0047   -1.9631   -5.2589 H   0  0  0  0  0  0  0  0  0  0  0  0
    0.0990   -0.5586   -5.0366 H   0  0  0  0  0  0  0  0  0  0  0  0
   -2.3385    3.0068   -5.2573 H   0  0  0  0  0  0  0  0  0  0  0  0
   -4.3780    1.6381   -5.5057 H   0  0  0  0  0  0  0  0  0  0  0  0
    0.0675    2.0666   -4.9591 N   0  0  0  0  0  0  0  0  0  0  0  0
    0.8950    2.7843   -4.7509 N   0  0  0  0  0  0  0  0  0  0  0  0
    2.2417    0.1051   -6.6731 S   0  0  0  0  0  0  0  0  0  0  0  0
    3.7332    1.2092   -6.5858 C   0  0  0  0  0  0  0  0  0  0  0  0
    2.6074   -0.9541   -7.6198 O   0  0  0  0  0  0  0  0  0  0  0  0
    1.1638    1.0396   -7.1123 O   0  0  0  0  0  0  0  0  0  0  0  0
    2.0691   -0.3094   -5.2476 O   0  0  0  0  0  0  0  0  0  0  0  0
    3.4962    2.2414   -5.7412 F   0  0  0  0  0  0  0  0  0  0  0  0
    4.8047    0.5464   -6.1334 F   0  0  0  0  0  0  0  0  0  0  0  0
    4.0255    1.7232   -7.7880 F   0  0  0  0  0  0  0  0  0  0  0  0
   -4.3507   -1.0902   -5.5141 O   0  0  0  0  0  0  0  0  0  0  0  0
   -5.6693   -0.5619   -5.6853 C   0  0  0  0  0  0  0  0  0  0  0  0
   -6.3224   -1.4296   -5.7656 H   0  0  0  0  0  0  0  0  0  0  0  0
   -5.7377    0.0349   -6.6009 H   0  0  0  0  0  0  0  0  0  0  0  0
   -5.9669    0.0417   -4.8206 H   0  0  0  0  0  0  0  0  0  0  0  0
  1  2  2  0  0  0  0
  2  3  1  0  0  0  0
  2  8  1  0  0  0  0
  3 11  1  0  0  0  0
  4  3  2  0  0  0  0
  5  6  2  0  0  0  0
  5  4  1  0  0  0  0
  6  1  1  0  0  0  0
  7  1  1  0  0  0  0
  9  4  1  0  0  0  0
 10  5  1  0  0  0  0
 11 12  1  0  0  0  0
 13 14  1  0  0  0  0
 13 17  1  0  0  0  0
 14 19  1  0  0  0  0
 14 18  1  0  0  0  0
 15 13  2  0  0  0  0
 16 13  2  0  0  0  0
 20 14  1  0  0  0  0
 21  6  1  0  0  0  0
 22 21  1  0  0  0  0
 22 25  1  0  0  0  0
 23 22  1  0  0  0  0
 24 22  1  0  0  0  0
M  RAD  3  11   2  12   3  17   2
M  END
