Coordinates from ORCA-job p-CH3O-Ph-N2-X-OTf-B3LYPG-6-31G_dp-scan-d09-49-n400
 OpenBabel08281821483D

 25 25  0  0  0  0  0  0  0  0999 V2000
   -1.9093   -0.8231   -4.5281 C   0  0  0  0  0  0  0  0  0  0  0  0
   -0.6764   -0.2068   -4.6817 C   0  0  0  0  0  0  0  0  0  0  0  0
   -0.5542    0.9564   -5.4591 C   0  0  0  0  0  0  0  0  0  0  0  0
   -1.6889    1.4851   -6.0828 C   0  0  0  0  0  0  0  0  0  0  0  0
   -2.9284    0.8619   -5.9484 C   0  0  0  0  0  0  0  0  0  0  0  0
   -3.0444   -0.2950   -5.1640 C   0  0  0  0  0  0  0  0  0  0  0  0
   -2.0205   -1.7214   -3.9305 H   0  0  0  0  0  0  0  0  0  0  0  0
    0.2069   -0.6227   -4.2081 H   0  0  0  0  0  0  0  0  0  0  0  0
   -1.5952    2.3833   -6.6831 H   0  0  0  0  0  0  0  0  0  0  0  0
   -3.7905    1.2862   -6.4478 H   0  0  0  0  0  0  0  0  0  0  0  0
    0.7058    1.6089   -5.5452 N   0  0  0  0  0  0  0  0  0  0  0  0
    1.1427    2.3966   -4.1137 N   0  0  0  0  0  0  0  0  0  0  0  0
    1.6071    1.6635   -6.9382 S   0  0  0  0  0  0  0  0  0  0  0  0
    2.6222    0.0999   -6.8002 C   0  0  0  0  0  0  0  0  0  0  0  0
    0.7759    1.5007   -8.1261 O   0  0  0  0  0  0  0  0  0  0  0  0
    2.5545    2.7653   -6.7959 O   0  0  0  0  0  0  0  0  0  0  0  0
    2.1397    2.8111   -4.0735 O   0  0  0  0  0  0  0  0  0  0  0  0
    1.8172   -0.9673   -6.7971 F   0  0  0  0  0  0  0  0  0  0  0  0
    3.4657    0.0185   -7.8277 F   0  0  0  0  0  0  0  0  0  0  0  0
    3.3167    0.1237   -5.6554 F   0  0  0  0  0  0  0  0  0  0  0  0
   -4.2038   -0.9757   -4.9579 O   0  0  0  0  0  0  0  0  0  0  0  0
   -5.3881   -0.5040   -5.5861 C   0  0  0  0  0  0  0  0  0  0  0  0
   -6.1794   -1.1935   -5.2892 H   0  0  0  0  0  0  0  0  0  0  0  0
   -5.2937   -0.5093   -6.6793 H   0  0  0  0  0  0  0  0  0  0  0  0
   -5.6473    0.5079   -5.2507 H   0  0  0  0  0  0  0  0  0  0  0  0
  1  7  1  0  0  0  0
  2  1  1  0  0  0  0
  2  8  1  0  0  0  0
  3  2  2  0  0  0  0
  4  5  2  0  0  0  0
  4  3  1  0  0  0  0
  5  6  1  0  0  0  0
  6 21  1  0  0  0  0
  6  1  2  0  0  0  0
  9  4  1  0  0  0  0
 10  5  1  0  0  0  0
 11  3  1  0  0  0  0
 11 12  1  0  0  0  0
 12 17  2  0  0  0  0
 13 14  1  0  0  0  0
 13 16  2  0  0  0  0
 13 11  1  0  0  0  0
 14 18  1  0  0  0  0
 14 20  1  0  0  0  0
 15 13  2  0  0  0  0
 19 14  1  0  0  0  0
 22 23  1  0  0  0  0
 22 25  1  0  0  0  0
 22 21  1  0  0  0  0
 24 22  1  0  0  0  0
M  END
