Coordinates from ORCA-job p-CH3O-Ph-N2-X-OTf-B3LYPG-6-31G_dp-scan-d09-49-n400
 OpenBabel08281821483D

 25 24  0  0  0  0  0  0  0  0999 V2000
   -1.9835   -0.7963   -5.3766 C   0  0  0  0  0  0  0  0  0  0  0  0
   -0.8696    0.0128   -5.3301 C   0  0  0  0  0  0  0  0  0  0  0  0
   -1.0887    1.4076   -5.3001 C   0  0  0  0  0  0  0  0  0  0  0  0
   -2.3725    1.9876   -5.3234 C   0  0  0  0  0  0  0  0  0  0  0  0
   -3.4725    1.1540   -5.3808 C   0  0  0  0  0  0  0  0  0  0  0  0
   -3.2842   -0.2472   -5.4076 C   0  0  0  0  0  0  0  0  0  0  0  0
   -1.8775   -1.8751   -5.4081 H   0  0  0  0  0  0  0  0  0  0  0  0
    0.1501   -0.3876   -5.3419 H   0  0  0  0  0  0  0  0  0  0  0  0
   -2.4908    3.0658   -5.3052 H   0  0  0  0  0  0  0  0  0  0  0  0
   -4.4640    1.5867   -5.4076 H   0  0  0  0  0  0  0  0  0  0  0  0
   -0.0229    2.2664   -5.2232 N   0  0  0  0  0  0  0  0  0  0  0  0
    0.7708    3.0389   -5.0894 N   0  0  0  0  0  0  0  0  0  0  0  0
    2.3181    0.0865   -6.8995 S   0  0  0  0  0  0  0  0  0  0  0  0
    3.7108    1.0930   -6.1918 C   0  0  0  0  0  0  0  0  0  0  0  0
    2.8829   -0.5442   -8.0957 O   0  0  0  0  0  0  0  0  0  0  0  0
    1.2700    1.1250   -7.1382 O   0  0  0  0  0  0  0  0  0  0  0  0
    1.9663   -0.8212   -5.7701 O   0  0  0  0  0  0  0  0  0  0  0  0
    3.2754    1.7888   -5.1087 F   0  0  0  0  0  0  0  0  0  0  0  0
    4.7272    0.3184   -5.7964 F   0  0  0  0  0  0  0  0  0  0  0  0
    4.1717    1.9816   -7.0832 F   0  0  0  0  0  0  0  0  0  0  0  0
   -4.2832   -1.1356   -5.4621 O   0  0  0  0  0  0  0  0  0  0  0  0
   -5.6390   -0.6826   -5.5209 C   0  0  0  0  0  0  0  0  0  0  0  0
   -6.2458   -1.5855   -5.5704 H   0  0  0  0  0  0  0  0  0  0  0  0
   -5.8116   -0.0748   -6.4155 H   0  0  0  0  0  0  0  0  0  0  0  0
   -5.9032   -0.1126   -4.6234 H   0  0  0  0  0  0  0  0  0  0  0  0
  1  2  2  0  0  0  0
  2  3  1  0  0  0  0
  3 11  1  0  0  0  0
  4  9  1  0  0  0  0
  4  3  2  0  0  0  0
  5  4  1  0  0  0  0
  6  5  2  0  0  0  0
  6  1  1  0  0  0  0
  7  1  1  0  0  0  0
  8  2  1  0  0  0  0
 10  5  1  0  0  0  0
 11 12  1  0  0  0  0
 13 14  1  0  0  0  0
 13 17  1  0  0  0  0
 14 19  1  0  0  0  0
 14 18  1  0  0  0  0
 15 13  2  0  0  0  0
 16 13  2  0  0  0  0
 20 14  1  0  0  0  0
 21  6  1  0  0  0  0
 22 21  1  0  0  0  0
 22 25  1  0  0  0  0
 23 22  1  0  0  0  0
 24 22  1  0  0  0  0
M  RAD  3  11   2  12   3  17   2
M  END
