Coordinates from ORCA-job p-CH3O-Ph-N2-X-OTf-B3LYPG-6-31G_dp-scan-d09-49-n400
 OpenBabel08281821483D

 25 24  0  0  0  0  0  0  0  0999 V2000
   -2.1170   -0.8898   -5.3219 C   0  0  0  0  0  0  0  0  0  0  0  0
   -0.9749   -0.1525   -5.1007 C   0  0  0  0  0  0  0  0  0  0  0  0
   -1.1076    1.2479   -4.9714 C   0  0  0  0  0  0  0  0  0  0  0  0
   -2.3458    1.8977   -5.0625 C   0  0  0  0  0  0  0  0  0  0  0  0
   -3.4843    1.1440   -5.2967 C   0  0  0  0  0  0  0  0  0  0  0  0
   -3.3751   -0.2559   -5.4282 C   0  0  0  0  0  0  0  0  0  0  0  0
   -2.0705   -1.9673   -5.4334 H   0  0  0  0  0  0  0  0  0  0  0  0
    0.0073   -0.6036   -5.0201 H   0  0  0  0  0  0  0  0  0  0  0  0
   -2.4036    2.9757   -4.9583 H   0  0  0  0  0  0  0  0  0  0  0  0
   -4.4428    1.6398   -5.3777 H   0  0  0  0  0  0  0  0  0  0  0  0
    0.0227    2.0005   -4.7462 N   0  0  0  0  0  0  0  0  0  0  0  0
    1.1153    2.2614   -4.6233 N   0  0  0  0  0  0  0  0  0  0  0  0
    2.3440    0.2158   -6.5069 S   0  0  0  0  0  0  0  0  0  0  0  0
    3.8361    1.2682   -6.8445 C   0  0  0  0  0  0  0  0  0  0  0  0
    2.7179   -1.1408   -6.9185 O   0  0  0  0  0  0  0  0  0  0  0  0
    1.2458    0.8849   -7.2351 O   0  0  0  0  0  0  0  0  0  0  0  0
    2.1844    0.3609   -5.0023 O   0  0  0  0  0  0  0  0  0  0  0  0
    3.6122    2.5308   -6.4359 F   0  0  0  0  0  0  0  0  0  0  0  0
    4.9074    0.7974   -6.1962 F   0  0  0  0  0  0  0  0  0  0  0  0
    4.1034    1.2910   -8.1565 F   0  0  0  0  0  0  0  0  0  0  0  0
   -4.4127   -1.0762   -5.6522 O   0  0  0  0  0  0  0  0  0  0  0  0
   -5.7268   -0.5318   -5.7917 C   0  0  0  0  0  0  0  0  0  0  0  0
   -6.3805   -1.3860   -5.9635 H   0  0  0  0  0  0  0  0  0  0  0  0
   -5.7825    0.1499   -6.6474 H   0  0  0  0  0  0  0  0  0  0  0  0
   -6.0381   -0.0116   -4.8789 H   0  0  0  0  0  0  0  0  0  0  0  0
  1  2  1  0  0  0  0
  2  8  1  0  0  0  0
  2  3  2  0  0  0  0
  3 11  1  0  0  0  0
  4  3  1  0  0  0  0
  4  9  1  0  0  0  0
  5  4  2  0  0  0  0
  6  1  2  0  0  0  0
  6  5  1  0  0  0  0
  7  1  1  0  0  0  0
 10  5  1  0  0  0  0
 11 12  1  0  0  0  0
 13 17  1  0  0  0  0
 14 13  1  0  0  0  0
 14 18  1  0  0  0  0
 14 19  1  0  0  0  0
 15 13  2  0  0  0  0
 16 13  2  0  0  0  0
 20 14  1  0  0  0  0
 21  6  1  0  0  0  0
 22 21  1  0  0  0  0
 22 25  1  0  0  0  0
 23 22  1  0  0  0  0
 24 22  1  0  0  0  0
M  RAD  3  11   2  12   3  17   2
M  END
