Coordinates from ORCA-job p-CH3O-Ph-N2-X-OTf-B3LYPG-6-31G_dp-scan-d09-49-n400
 OpenBabel08281821483D

 25 24  0  0  0  0  0  0  0  0999 V2000
   -2.1483   -0.8804   -5.3918 C   0  0  0  0  0  0  0  0  0  0  0  0
   -1.0079   -0.1277   -5.2109 C   0  0  0  0  0  0  0  0  0  0  0  0
   -1.1510    1.2690   -5.0559 C   0  0  0  0  0  0  0  0  0  0  0  0
   -2.4042    1.8952   -5.0802 C   0  0  0  0  0  0  0  0  0  0  0  0
   -3.5427    1.1282   -5.2705 C   0  0  0  0  0  0  0  0  0  0  0  0
   -3.4197   -0.2668   -5.4276 C   0  0  0  0  0  0  0  0  0  0  0  0
   -2.0905   -1.9557   -5.5192 H   0  0  0  0  0  0  0  0  0  0  0  0
   -0.0188   -0.5689   -5.1784 H   0  0  0  0  0  0  0  0  0  0  0  0
   -2.4728    2.9706   -4.9564 H   0  0  0  0  0  0  0  0  0  0  0  0
   -4.5112    1.6107   -5.2974 H   0  0  0  0  0  0  0  0  0  0  0  0
   -0.0317    2.0581   -4.8692 N   0  0  0  0  0  0  0  0  0  0  0  0
    1.0903    2.2461   -4.8092 N   0  0  0  0  0  0  0  0  0  0  0  0
    2.3853    0.3079   -6.6094 S   0  0  0  0  0  0  0  0  0  0  0  0
    3.9973    1.2222   -6.7299 C   0  0  0  0  0  0  0  0  0  0  0  0
    2.6866   -1.0812   -6.9630 O   0  0  0  0  0  0  0  0  0  0  0  0
    1.4458    1.0676   -7.4511 O   0  0  0  0  0  0  0  0  0  0  0  0
    2.0528    0.4598   -5.1204 O   0  0  0  0  0  0  0  0  0  0  0  0
    3.8331    2.4956   -6.3356 F   0  0  0  0  0  0  0  0  0  0  0  0
    4.9226    0.6503   -5.9521 F   0  0  0  0  0  0  0  0  0  0  0  0
    4.4348    1.2199   -7.9944 F   0  0  0  0  0  0  0  0  0  0  0  0
   -4.4551   -1.1018   -5.6130 O   0  0  0  0  0  0  0  0  0  0  0  0
   -5.7821   -0.5758   -5.6705 C   0  0  0  0  0  0  0  0  0  0  0  0
   -6.4321   -1.4367   -5.8224 H   0  0  0  0  0  0  0  0  0  0  0  0
   -5.8953    0.1207   -6.5086 H   0  0  0  0  0  0  0  0  0  0  0  0
   -6.0510   -0.0768   -4.7327 H   0  0  0  0  0  0  0  0  0  0  0  0
  1  2  1  0  0  0  0
  2  8  1  0  0  0  0
  2  3  2  0  0  0  0
  3 11  1  0  0  0  0
  4  3  1  0  0  0  0
  4  9  1  0  0  0  0
  5  4  2  0  0  0  0
  6  1  2  0  0  0  0
  6  5  1  0  0  0  0
  7  1  1  0  0  0  0
 10  5  1  0  0  0  0
 11 12  2  0  0  0  0
 13 17  1  0  0  0  0
 14 13  1  0  0  0  0
 14 18  1  0  0  0  0
 14 19  1  0  0  0  0
 15 13  2  0  0  0  0
 16 13  2  0  0  0  0
 20 14  1  0  0  0  0
 21  6  1  0  0  0  0
 22 21  1  0  0  0  0
 22 25  1  0  0  0  0
 23 22  1  0  0  0  0
 24 22  1  0  0  0  0
M  RAD  2  12   2  17   2
M  END
