Coordinates from ORCA-job p-CH3O-Ph-N2-X-OTf-B3LYPG-6-31G_dp-scan-d09-49-n400
 OpenBabel08281821483D

 25 24  0  0  0  0  0  0  0  0999 V2000
   -2.1153   -0.8925   -5.3117 C   0  0  0  0  0  0  0  0  0  0  0  0
   -0.9722   -0.1578   -5.0878 C   0  0  0  0  0  0  0  0  0  0  0  0
   -1.1020    1.2435   -4.9647 C   0  0  0  0  0  0  0  0  0  0  0  0
   -2.3373    1.8977   -5.0652 C   0  0  0  0  0  0  0  0  0  0  0  0
   -3.4764    1.1462   -5.3021 C   0  0  0  0  0  0  0  0  0  0  0  0
   -3.3708   -0.2548   -5.4272 C   0  0  0  0  0  0  0  0  0  0  0  0
   -2.0716   -1.9705   -5.4190 H   0  0  0  0  0  0  0  0  0  0  0  0
    0.0091   -0.6097   -5.0008 H   0  0  0  0  0  0  0  0  0  0  0  0
   -2.3923    2.9763   -4.9660 H   0  0  0  0  0  0  0  0  0  0  0  0
   -4.4330    1.6444   -5.3903 H   0  0  0  0  0  0  0  0  0  0  0  0
    0.0310    1.9893   -4.7372 N   0  0  0  0  0  0  0  0  0  0  0  0
    1.1177    2.2636   -4.6050 N   0  0  0  0  0  0  0  0  0  0  0  0
    2.3430    0.2019   -6.4982 S   0  0  0  0  0  0  0  0  0  0  0  0
    3.8149    1.2769   -6.8532 C   0  0  0  0  0  0  0  0  0  0  0  0
    2.7294   -1.1463   -6.9262 O   0  0  0  0  0  0  0  0  0  0  0  0
    1.2263    0.8604   -7.2097 O   0  0  0  0  0  0  0  0  0  0  0  0
    2.2021    0.3385   -4.9932 O   0  0  0  0  0  0  0  0  0  0  0  0
    3.5771    2.5363   -6.4408 F   0  0  0  0  0  0  0  0  0  0  0  0
    4.9014    0.8227   -6.2180 F   0  0  0  0  0  0  0  0  0  0  0  0
    4.0670    1.3055   -8.1682 F   0  0  0  0  0  0  0  0  0  0  0  0
   -4.4096   -1.0725   -5.6532 O   0  0  0  0  0  0  0  0  0  0  0  0
   -5.7214   -0.5247   -5.8026 C   0  0  0  0  0  0  0  0  0  0  0  0
   -6.3765   -1.3778   -5.9744 H   0  0  0  0  0  0  0  0  0  0  0  0
   -5.7701    0.1533   -6.6616 H   0  0  0  0  0  0  0  0  0  0  0  0
   -6.0363    0.0002   -4.8938 H   0  0  0  0  0  0  0  0  0  0  0  0
  1  2  1  0  0  0  0
  2  8  1  0  0  0  0
  2  3  2  0  0  0  0
  3 11  1  0  0  0  0
  4  9  1  0  0  0  0
  4  3  1  0  0  0  0
  5  4  2  0  0  0  0
  6  1  2  0  0  0  0
  6  5  1  0  0  0  0
  7  1  1  0  0  0  0
 10  5  1  0  0  0  0
 11 12  1  0  0  0  0
 13 17  1  0  0  0  0
 14 13  1  0  0  0  0
 14 18  1  0  0  0  0
 14 19  1  0  0  0  0
 15 13  2  0  0  0  0
 16 13  2  0  0  0  0
 20 14  1  0  0  0  0
 21  6  1  0  0  0  0
 22 21  1  0  0  0  0
 22 25  1  0  0  0  0
 23 22  1  0  0  0  0
 24 22  1  0  0  0  0
M  RAD  3  11   2  12   3  17   2
M  END
