Coordinates from ORCA-job p-CH3O-Ph-N2-X-OTf-B3LYPG-6-31G_dp-scan-d09-49-n400
 OpenBabel08281821483D

 25 24  0  0  0  0  0  0  0  0999 V2000
   -2.0629   -0.9084   -5.2135 C   0  0  0  0  0  0  0  0  0  0  0  0
   -0.9075   -0.1779   -5.0532 C   0  0  0  0  0  0  0  0  0  0  0  0
   -1.0222    1.2290   -5.0537 C   0  0  0  0  0  0  0  0  0  0  0  0
   -2.2474    1.8980   -5.2227 C   0  0  0  0  0  0  0  0  0  0  0  0
   -3.3942    1.1442   -5.3925 C   0  0  0  0  0  0  0  0  0  0  0  0
   -3.3091   -0.2657   -5.3885 C   0  0  0  0  0  0  0  0  0  0  0  0
   -2.0355   -1.9923   -5.2276 H   0  0  0  0  0  0  0  0  0  0  0  0
    0.0818   -0.6190   -4.9459 H   0  0  0  0  0  0  0  0  0  0  0  0
   -2.2874    2.9819   -5.2271 H   0  0  0  0  0  0  0  0  0  0  0  0
   -4.3422    1.6473   -5.5308 H   0  0  0  0  0  0  0  0  0  0  0  0
    0.0953    2.0010   -4.8686 N   0  0  0  0  0  0  0  0  0  0  0  0
    0.9482    2.6822   -4.6445 N   0  0  0  0  0  0  0  0  0  0  0  0
    2.2169    0.1407   -6.6079 S   0  0  0  0  0  0  0  0  0  0  0  0
    3.7086    1.2443   -6.6919 C   0  0  0  0  0  0  0  0  0  0  0  0
    2.5617   -1.0331   -7.4182 O   0  0  0  0  0  0  0  0  0  0  0  0
    1.1256    1.0115   -7.1310 O   0  0  0  0  0  0  0  0  0  0  0  0
    2.0773   -0.0921   -5.1360 O   0  0  0  0  0  0  0  0  0  0  0  0
    3.4833    2.3780   -5.9883 F   0  0  0  0  0  0  0  0  0  0  0  0
    4.7878    0.6449   -6.1736 F   0  0  0  0  0  0  0  0  0  0  0  0
    3.9805    1.5933   -7.9566 F   0  0  0  0  0  0  0  0  0  0  0  0
   -4.3593   -1.0815   -5.5428 O   0  0  0  0  0  0  0  0  0  0  0  0
   -5.6638   -0.5313   -5.7492 C   0  0  0  0  0  0  0  0  0  0  0  0
   -6.3290   -1.3882   -5.8468 H   0  0  0  0  0  0  0  0  0  0  0  0
   -5.6980    0.0659   -6.6664 H   0  0  0  0  0  0  0  0  0  0  0  0
   -5.9743    0.0776   -4.8929 H   0  0  0  0  0  0  0  0  0  0  0  0
  1  2  2  0  0  0  0
  2  8  1  0  0  0  0
  3  2  1  0  0  0  0
  3 11  1  0  0  0  0
  4  3  2  0  0  0  0
  5  6  2  0  0  0  0
  5  4  1  0  0  0  0
  6  1  1  0  0  0  0
  7  1  1  0  0  0  0
  9  4  1  0  0  0  0
 10  5  1  0  0  0  0
 11 12  1  0  0  0  0
 13 17  1  0  0  0  0
 14 13  1  0  0  0  0
 14 19  1  0  0  0  0
 14 18  1  0  0  0  0
 15 13  2  0  0  0  0
 16 13  2  0  0  0  0
 20 14  1  0  0  0  0
 21  6  1  0  0  0  0
 22 21  1  0  0  0  0
 22 25  1  0  0  0  0
 23 22  1  0  0  0  0
 24 22  1  0  0  0  0
M  RAD  3  11   2  12   3  17   2
M  END
