Coordinates from ORCA-job p-CH3O-Ph-N2-X-OTf-B3LYPG-6-31G_dp-scan-d09-49-n400
 OpenBabel08281821483D

 25 24  0  0  0  0  0  0  0  0999 V2000
   -1.9680   -0.7842   -5.4166 C   0  0  0  0  0  0  0  0  0  0  0  0
   -0.8598    0.0340   -5.3912 C   0  0  0  0  0  0  0  0  0  0  0  0
   -1.0898    1.4267   -5.3483 C   0  0  0  0  0  0  0  0  0  0  0  0
   -2.3795    1.9950   -5.3376 C   0  0  0  0  0  0  0  0  0  0  0  0
   -3.4734    1.1526   -5.3745 C   0  0  0  0  0  0  0  0  0  0  0  0
   -3.2738   -0.2467   -5.4144 C   0  0  0  0  0  0  0  0  0  0  0  0
   -1.8527   -1.8617   -5.4569 H   0  0  0  0  0  0  0  0  0  0  0  0
    0.1597   -0.3646   -5.4286 H   0  0  0  0  0  0  0  0  0  0  0  0
   -2.5066    3.0720   -5.3094 H   0  0  0  0  0  0  0  0  0  0  0  0
   -4.4688    1.5770   -5.3750 H   0  0  0  0  0  0  0  0  0  0  0  0
   -0.0334    2.2993   -5.2907 N   0  0  0  0  0  0  0  0  0  0  0  0
    0.7430    3.0915   -5.1691 N   0  0  0  0  0  0  0  0  0  0  0  0
    2.3378    0.0953   -6.9455 S   0  0  0  0  0  0  0  0  0  0  0  0
    3.6804    1.0648   -6.1015 C   0  0  0  0  0  0  0  0  0  0  0  0
    2.9664   -0.4395   -8.1562 O   0  0  0  0  0  0  0  0  0  0  0  0
    1.2907    1.1414   -7.1585 O   0  0  0  0  0  0  0  0  0  0  0  0
    1.9435   -0.8956   -5.9044 O   0  0  0  0  0  0  0  0  0  0  0  0
    3.1776    1.6875   -5.0023 F   0  0  0  0  0  0  0  0  0  0  0  0
    4.6832    0.2763   -5.6996 F   0  0  0  0  0  0  0  0  0  0  0  0
    4.1780    2.0122   -6.9084 F   0  0  0  0  0  0  0  0  0  0  0  0
   -4.2662   -1.1433   -5.4521 O   0  0  0  0  0  0  0  0  0  0  0  0
   -5.6267   -0.7015   -5.4771 C   0  0  0  0  0  0  0  0  0  0  0  0
   -6.2270   -1.6092   -5.5194 H   0  0  0  0  0  0  0  0  0  0  0  0
   -5.8248   -0.0890   -6.3631 H   0  0  0  0  0  0  0  0  0  0  0  0
   -5.8754   -0.1401   -4.5697 H   0  0  0  0  0  0  0  0  0  0  0  0
  1  6  2  0  0  0  0
  1  2  1  0  0  0  0
  2  3  2  0  0  0  0
  3  4  1  0  0  0  0
  3 11  1  0  0  0  0
  4  9  1  0  0  0  0
  5  4  2  0  0  0  0
  6  5  1  0  0  0  0
  7  1  1  0  0  0  0
  8  2  1  0  0  0  0
 10  5  1  0  0  0  0
 11 12  1  0  0  0  0
 13 14  1  0  0  0  0
 13 17  1  0  0  0  0
 14 19  1  0  0  0  0
 14 18  1  0  0  0  0
 15 13  2  0  0  0  0
 16 13  2  0  0  0  0
 20 14  1  0  0  0  0
 21  6  1  0  0  0  0
 22 21  1  0  0  0  0
 22 25  1  0  0  0  0
 23 22  1  0  0  0  0
 24 22  1  0  0  0  0
M  RAD  3  11   2  12   3  17   2
M  END
