Coordinates from ORCA-job p-CH3O-Ph-N2-X-OTf-B3LYPG-6-31G_dp-scan-d09-49-n400
 OpenBabel08281821483D

 25 24  0  0  0  0  0  0  0  0999 V2000
   -2.0206   -0.8397   -5.2912 C   0  0  0  0  0  0  0  0  0  0  0  0
   -0.8878   -0.0629   -5.1929 C   0  0  0  0  0  0  0  0  0  0  0  0
   -1.0650    1.3377   -5.1823 C   0  0  0  0  0  0  0  0  0  0  0  0
   -2.3261    1.9561   -5.2768 C   0  0  0  0  0  0  0  0  0  0  0  0
   -3.4468    1.1548   -5.3857 C   0  0  0  0  0  0  0  0  0  0  0  0
   -3.3007   -0.2511   -5.3934 C   0  0  0  0  0  0  0  0  0  0  0  0
   -1.9476   -1.9215   -5.3104 H   0  0  0  0  0  0  0  0  0  0  0  0
    0.1238   -0.4766   -5.1491 H   0  0  0  0  0  0  0  0  0  0  0  0
   -2.4123    3.0374   -5.2729 H   0  0  0  0  0  0  0  0  0  0  0  0
   -4.4218    1.6170   -5.4676 H   0  0  0  0  0  0  0  0  0  0  0  0
    0.0247    2.1605   -5.0572 N   0  0  0  0  0  0  0  0  0  0  0  0
    0.8353    2.9049   -4.8752 N   0  0  0  0  0  0  0  0  0  0  0  0
    2.2696    0.0789   -6.7724 S   0  0  0  0  0  0  0  0  0  0  0  0
    3.7379    1.1635   -6.4277 C   0  0  0  0  0  0  0  0  0  0  0  0
    2.6931   -0.7877   -7.8770 O   0  0  0  0  0  0  0  0  0  0  0  0
    1.2009    1.0731   -7.0912 O   0  0  0  0  0  0  0  0  0  0  0  0
    2.0427   -0.5840   -5.4547 O   0  0  0  0  0  0  0  0  0  0  0  0
    3.4470    2.0351   -5.4302 F   0  0  0  0  0  0  0  0  0  0  0  0
    4.7991    0.4432   -6.0453 F   0  0  0  0  0  0  0  0  0  0  0  0
    4.0751    1.8807   -7.5085 F   0  0  0  0  0  0  0  0  0  0  0  0
   -4.3221   -1.1098   -5.4937 O   0  0  0  0  0  0  0  0  0  0  0  0
   -5.6583   -0.6163   -5.6278 C   0  0  0  0  0  0  0  0  0  0  0  0
   -6.2896   -1.5009   -5.6996 H   0  0  0  0  0  0  0  0  0  0  0  0
   -5.7654   -0.0142   -6.5362 H   0  0  0  0  0  0  0  0  0  0  0  0
   -5.9507   -0.0280   -4.7510 H   0  0  0  0  0  0  0  0  0  0  0  0
  1  2  2  0  0  0  0
  2  3  1  0  0  0  0
  2  8  1  0  0  0  0
  3 11  1  0  0  0  0
  4  9  1  0  0  0  0
  4  3  2  0  0  0  0
  5  4  1  0  0  0  0
  6  5  2  0  0  0  0
  6  1  1  0  0  0  0
  7  1  1  0  0  0  0
 10  5  1  0  0  0  0
 11 12  1  0  0  0  0
 13 14  1  0  0  0  0
 13 17  1  0  0  0  0
 14 19  1  0  0  0  0
 14 18  1  0  0  0  0
 15 13  2  0  0  0  0
 16 13  2  0  0  0  0
 20 14  1  0  0  0  0
 21  6  1  0  0  0  0
 22 21  1  0  0  0  0
 22 25  1  0  0  0  0
 23 22  1  0  0  0  0
 24 22  1  0  0  0  0
M  RAD  3  11   2  12   3  17   2
M  END
