Coordinates from ORCA-job p-CH3O-Ph-N2-X-OTf-B3LYPG-6-31G_dp-scan-d09-49-n400
 OpenBabel08281821483D

 25 25  0  0  0  0  0  0  0  0999 V2000
   -2.1354   -1.1878   -5.3436 C   0  0  0  0  0  0  0  0  0  0  0  0
   -0.8619   -0.6461   -5.3684 C   0  0  0  0  0  0  0  0  0  0  0  0
   -0.7086    0.7433   -5.4713 C   0  0  0  0  0  0  0  0  0  0  0  0
   -1.8235    1.5798   -5.5565 C   0  0  0  0  0  0  0  0  0  0  0  0
   -3.1051    1.0365   -5.5208 C   0  0  0  0  0  0  0  0  0  0  0  0
   -3.2660   -0.3536   -5.4172 C   0  0  0  0  0  0  0  0  0  0  0  0
   -2.2878   -2.2585   -5.2618 H   0  0  0  0  0  0  0  0  0  0  0  0
    0.0100   -1.2858   -5.3091 H   0  0  0  0  0  0  0  0  0  0  0  0
   -1.6832    2.6522   -5.6435 H   0  0  0  0  0  0  0  0  0  0  0  0
   -3.9611    1.6965   -5.5824 H   0  0  0  0  0  0  0  0  0  0  0  0
    0.5996    1.3300   -5.4754 N   0  0  0  0  0  0  0  0  0  0  0  0
    0.8816    2.2680   -4.6516 N   0  0  0  0  0  0  0  0  0  0  0  0
    1.7139    1.0566   -6.9565 S   0  0  0  0  0  0  0  0  0  0  0  0
    3.4424    0.6963   -6.2355 C   0  0  0  0  0  0  0  0  0  0  0  0
    1.2379   -0.2330   -7.4477 O   0  0  0  0  0  0  0  0  0  0  0  0
    1.7302    2.2370   -7.8057 O   0  0  0  0  0  0  0  0  0  0  0  0
    2.2021    2.8610   -5.0109 O   0  0  0  0  0  0  0  0  0  0  0  0
    3.3176    0.2784   -4.9824 F   0  0  0  0  0  0  0  0  0  0  0  0
    3.9339   -0.2898   -6.9869 F   0  0  0  0  0  0  0  0  0  0  0  0
    4.2239    1.7495   -6.3249 F   0  0  0  0  0  0  0  0  0  0  0  0
   -4.4624   -0.9879   -5.3819 O   0  0  0  0  0  0  0  0  0  0  0  0
   -5.6520   -0.2093   -5.4473 C   0  0  0  0  0  0  0  0  0  0  0  0
   -6.4763   -0.9214   -5.4053 H   0  0  0  0  0  0  0  0  0  0  0  0
   -5.7095    0.3568   -6.3848 H   0  0  0  0  0  0  0  0  0  0  0  0
   -5.7260    0.4817   -4.5987 H   0  0  0  0  0  0  0  0  0  0  0  0
  1  7  1  0  0  0  0
  2  1  1  0  0  0  0
  2  8  1  0  0  0  0
  3  2  2  0  0  0  0
  4  5  2  0  0  0  0
  4  3  1  0  0  0  0
  5  6  1  0  0  0  0
  6 21  1  0  0  0  0
  6  1  2  0  0  0  0
  9  4  1  0  0  0  0
 10  5  1  0  0  0  0
 11  3  1  0  0  0  0
 11 12  1  0  0  0  0
 13 14  1  0  0  0  0
 13 11  1  0  0  0  0
 14 18  1  0  0  0  0
 15 13  2  0  0  0  0
 16 13  2  0  0  0  0
 17 12  1  0  0  0  0
 19 14  1  0  0  0  0
 20 14  1  0  0  0  0
 22 23  1  0  0  0  0
 22 21  1  0  0  0  0
 22 25  1  0  0  0  0
 24 22  1  0  0  0  0
M  RAD  2  12   2  17   2
M  END
