Coordinates from ORCA-job p-CH3O-Ph-N2-X-OTf-B3LYPG-6-31G_dp-scan-d09-49-n400
 OpenBabel08281821483D

 25 24  0  0  0  0  0  0  0  0999 V2000
   -1.8714   -0.7133   -5.5752 C   0  0  0  0  0  0  0  0  0  0  0  0
   -0.7956    0.1409   -5.6904 C   0  0  0  0  0  0  0  0  0  0  0  0
   -1.0631    1.5258   -5.6350 C   0  0  0  0  0  0  0  0  0  0  0  0
   -2.3643    2.0470   -5.4701 C   0  0  0  0  0  0  0  0  0  0  0  0
   -3.4255    1.1700   -5.3661 C   0  0  0  0  0  0  0  0  0  0  0  0
   -3.1852   -0.2222   -5.4181 C   0  0  0  0  0  0  0  0  0  0  0  0
   -1.7202   -1.7860   -5.6193 H   0  0  0  0  0  0  0  0  0  0  0  0
    0.2116   -0.2502   -5.8408 H   0  0  0  0  0  0  0  0  0  0  0  0
   -2.5248    3.1193   -5.4345 H   0  0  0  0  0  0  0  0  0  0  0  0
   -4.4269    1.5626   -5.2469 H   0  0  0  0  0  0  0  0  0  0  0  0
   -0.0560    2.4572   -5.7134 N   0  0  0  0  0  0  0  0  0  0  0  0
    0.6289    3.3387   -5.6991 N   0  0  0  0  0  0  0  0  0  0  0  0
    2.4409    0.1626   -7.1573 S   0  0  0  0  0  0  0  0  0  0  0  0
    3.3638    0.8277   -5.6860 C   0  0  0  0  0  0  0  0  0  0  0  0
    3.4520    0.0167   -8.2062 O   0  0  0  0  0  0  0  0  0  0  0  0
    1.4307    1.2482   -7.3686 O   0  0  0  0  0  0  0  0  0  0  0  0
    1.8363   -1.0872   -6.6219 O   0  0  0  0  0  0  0  0  0  0  0  0
    2.4791    1.1148   -4.6887 F   0  0  0  0  0  0  0  0  0  0  0  0
    4.2493   -0.0494   -5.2040 F   0  0  0  0  0  0  0  0  0  0  0  0
    4.0080    1.9661   -5.9823 F   0  0  0  0  0  0  0  0  0  0  0  0
   -4.1432   -1.1517   -5.3272 O   0  0  0  0  0  0  0  0  0  0  0  0
   -5.5101   -0.7548   -5.1822 C   0  0  0  0  0  0  0  0  0  0  0  0
   -6.0795   -1.6820   -5.1377 H   0  0  0  0  0  0  0  0  0  0  0  0
   -5.8411   -0.1627   -6.0423 H   0  0  0  0  0  0  0  0  0  0  0  0
   -5.6593   -0.1881   -4.2568 H   0  0  0  0  0  0  0  0  0  0  0  0
  1  6  2  0  0  0  0
  2  3  2  0  0  0  0
  2  1  1  0  0  0  0
  3  4  1  0  0  0  0
  4  9  1  0  0  0  0
  4  5  2  0  0  0  0
  5 10  1  0  0  0  0
  6  5  1  0  0  0  0
  6 21  1  0  0  0  0
  7  1  1  0  0  0  0
  8  2  1  0  0  0  0
 11 12  1  0  0  0  0
 11  3  1  0  0  0  0
 13 17  1  0  0  0  0
 13 14  1  0  0  0  0
 14 19  1  0  0  0  0
 14 18  1  0  0  0  0
 15 13  2  0  0  0  0
 16 13  2  0  0  0  0
 20 14  1  0  0  0  0
 21 22  1  0  0  0  0
 22 23  1  0  0  0  0
 22 25  1  0  0  0  0
 24 22  1  0  0  0  0
M  RAD  3  11   2  12   3  17   2
M  END
