Coordinates from ORCA-job p-CH3O-Ph-N2-X-OTf-B3LYPG-6-31G_dp-scan-d09-49-n400
 OpenBabel08281821483D

 25 24  0  0  0  0  0  0  0  0999 V2000
   -2.0669   -0.9080   -5.2108 C   0  0  0  0  0  0  0  0  0  0  0  0
   -0.9168   -0.1784   -5.0153 C   0  0  0  0  0  0  0  0  0  0  0  0
   -1.0342    1.2295   -4.9906 C   0  0  0  0  0  0  0  0  0  0  0  0
   -2.2559    1.8995   -5.1693 C   0  0  0  0  0  0  0  0  0  0  0  0
   -3.3980    1.1472   -5.3755 C   0  0  0  0  0  0  0  0  0  0  0  0
   -3.3104   -0.2624   -5.3972 C   0  0  0  0  0  0  0  0  0  0  0  0
   -2.0375   -1.9913   -5.2460 H   0  0  0  0  0  0  0  0  0  0  0  0
    0.0685   -0.6214   -4.8941 H   0  0  0  0  0  0  0  0  0  0  0  0
   -2.2972    2.9832   -5.1534 H   0  0  0  0  0  0  0  0  0  0  0  0
   -4.3444    1.6506   -5.5222 H   0  0  0  0  0  0  0  0  0  0  0  0
    0.0913    1.9781   -4.7777 N   0  0  0  0  0  0  0  0  0  0  0  0
    1.0184    2.5542   -4.5532 N   0  0  0  0  0  0  0  0  0  0  0  0
    2.2197    0.1561   -6.5554 S   0  0  0  0  0  0  0  0  0  0  0  0
    3.6977    1.2581   -6.7792 C   0  0  0  0  0  0  0  0  0  0  0  0
    2.5496   -1.0813   -7.2730 O   0  0  0  0  0  0  0  0  0  0  0  0
    1.1017    0.9690   -7.1096 O   0  0  0  0  0  0  0  0  0  0  0  0
    2.1306    0.0417   -5.0642 O   0  0  0  0  0  0  0  0  0  0  0  0
    3.4904    2.4410   -6.1583 F   0  0  0  0  0  0  0  0  0  0  0  0
    4.7993    0.7040   -6.2568 F   0  0  0  0  0  0  0  0  0  0  0  0
    3.9203    1.5072   -8.0770 F   0  0  0  0  0  0  0  0  0  0  0  0
   -4.3558   -1.0767   -5.5868 O   0  0  0  0  0  0  0  0  0  0  0  0
   -5.6572   -0.5250   -5.8082 C   0  0  0  0  0  0  0  0  0  0  0  0
   -6.3188   -1.3810   -5.9331 H   0  0  0  0  0  0  0  0  0  0  0  0
   -5.6751    0.0879   -6.7155 H   0  0  0  0  0  0  0  0  0  0  0  0
   -5.9850    0.0684   -4.9474 H   0  0  0  0  0  0  0  0  0  0  0  0
  1  2  2  0  0  0  0
  2  3  1  0  0  0  0
  2  8  1  0  0  0  0
  3 11  1  0  0  0  0
  4  9  1  0  0  0  0
  4  3  2  0  0  0  0
  5  4  1  0  0  0  0
  6  5  2  0  0  0  0
  6  1  1  0  0  0  0
  7  1  1  0  0  0  0
 10  5  1  0  0  0  0
 11 12  1  0  0  0  0
 13 17  1  0  0  0  0
 14 13  1  0  0  0  0
 14 19  1  0  0  0  0
 14 18  1  0  0  0  0
 15 13  2  0  0  0  0
 16 13  2  0  0  0  0
 20 14  1  0  0  0  0
 21  6  1  0  0  0  0
 22 21  1  0  0  0  0
 22 25  1  0  0  0  0
 23 22  1  0  0  0  0
 24 22  1  0  0  0  0
M  RAD  3  11   2  12   3  17   2
M  END
