Coordinates from ORCA-job p-CH3O-Ph-N2-X-OTf-B3LYPG-6-31G_dp-scan-d09-49-n400
 OpenBabel08281821483D

 25 25  0  0  0  0  0  0  0  0999 V2000
   -2.1254   -1.1897   -5.2778 C   0  0  0  0  0  0  0  0  0  0  0  0
   -0.8498   -0.6521   -5.3069 C   0  0  0  0  0  0  0  0  0  0  0  0
   -0.6872    0.7304   -5.4642 C   0  0  0  0  0  0  0  0  0  0  0  0
   -1.7972    1.5651   -5.5993 C   0  0  0  0  0  0  0  0  0  0  0  0
   -3.0826    1.0289   -5.5566 C   0  0  0  0  0  0  0  0  0  0  0  0
   -3.2510   -0.3547   -5.3994 C   0  0  0  0  0  0  0  0  0  0  0  0
   -2.2833   -2.2556   -5.1553 H   0  0  0  0  0  0  0  0  0  0  0  0
    0.0198   -1.2912   -5.2086 H   0  0  0  0  0  0  0  0  0  0  0  0
   -1.6528    2.6327   -5.7282 H   0  0  0  0  0  0  0  0  0  0  0  0
   -3.9348    1.6893   -5.6548 H   0  0  0  0  0  0  0  0  0  0  0  0
    0.6276    1.3037   -5.4778 N   0  0  0  0  0  0  0  0  0  0  0  0
    0.9276    2.2358   -4.6105 N   0  0  0  0  0  0  0  0  0  0  0  0
    1.6747    1.0878   -6.9695 S   0  0  0  0  0  0  0  0  0  0  0  0
    3.4026    0.6892   -6.2787 C   0  0  0  0  0  0  0  0  0  0  0  0
    1.1809   -0.1649   -7.5294 O   0  0  0  0  0  0  0  0  0  0  0  0
    1.7167    2.3184   -7.7441 O   0  0  0  0  0  0  0  0  0  0  0  0
    2.1316    2.8127   -4.8757 O   0  0  0  0  0  0  0  0  0  0  0  0
    3.2879    0.2240   -5.0392 F   0  0  0  0  0  0  0  0  0  0  0  0
    3.8940   -0.2648   -7.0693 F   0  0  0  0  0  0  0  0  0  0  0  0
    4.1826    1.7491   -6.3242 F   0  0  0  0  0  0  0  0  0  0  0  0
   -4.4515   -0.9828   -5.3535 O   0  0  0  0  0  0  0  0  0  0  0  0
   -5.6356   -0.2022   -5.4663 C   0  0  0  0  0  0  0  0  0  0  0  0
   -6.4645   -0.9079   -5.4063 H   0  0  0  0  0  0  0  0  0  0  0  0
   -5.6782    0.3257   -6.4266 H   0  0  0  0  0  0  0  0  0  0  0  0
   -5.7175    0.5235   -4.6478 H   0  0  0  0  0  0  0  0  0  0  0  0
  1  7  1  0  0  0  0
  2  1  1  0  0  0  0
  2  8  1  0  0  0  0
  3  2  2  0  0  0  0
  4  5  2  0  0  0  0
  4  3  1  0  0  0  0
  5  6  1  0  0  0  0
  6 21  1  0  0  0  0
  6  1  2  0  0  0  0
  9  4  1  0  0  0  0
 10  5  1  0  0  0  0
 11  3  1  0  0  0  0
 11 12  1  0  0  0  0
 13 14  1  0  0  0  0
 13 11  1  0  0  0  0
 14 18  1  0  0  0  0
 15 13  2  0  0  0  0
 16 13  2  0  0  0  0
 17 12  1  0  0  0  0
 19 14  1  0  0  0  0
 20 14  1  0  0  0  0
 22 23  1  0  0  0  0
 22 21  1  0  0  0  0
 22 25  1  0  0  0  0
 24 22  1  0  0  0  0
M  RAD  2  12   2  17   2
M  END
