Coordinates from ORCA-job p-CH3O-Ph-N2-X-OTf-B3LYPG-6-31G_dp-scan-d09-49-n400
 OpenBabel08281821483D

 25 24  0  0  0  0  0  0  0  0999 V2000
   -1.9397   -0.5632   -5.9340 C   0  0  0  0  0  0  0  0  0  0  0  0
   -0.9647    0.3529   -6.2684 C   0  0  0  0  0  0  0  0  0  0  0  0
   -1.3060    1.7201   -6.1933 C   0  0  0  0  0  0  0  0  0  0  0  0
   -2.5852    2.1647   -5.7921 C   0  0  0  0  0  0  0  0  0  0  0  0
   -3.5422    1.2281   -5.4571 C   0  0  0  0  0  0  0  0  0  0  0  0
   -3.2251   -0.1488   -5.5270 C   0  0  0  0  0  0  0  0  0  0  0  0
   -1.7209   -1.6245   -5.9722 H   0  0  0  0  0  0  0  0  0  0  0  0
    0.0329    0.0322   -6.5648 H   0  0  0  0  0  0  0  0  0  0  0  0
   -2.8071    3.2256   -5.7459 H   0  0  0  0  0  0  0  0  0  0  0  0
   -4.5226    1.5622   -5.1438 H   0  0  0  0  0  0  0  0  0  0  0  0
   -0.4095    2.7107   -6.5215 N   0  0  0  0  0  0  0  0  0  0  0  0
    0.1536    3.6434   -6.7708 N   0  0  0  0  0  0  0  0  0  0  0  0
    2.6022    0.2851   -6.7726 S   0  0  0  0  0  0  0  0  0  0  0  0
    3.6257    0.3368   -5.2234 C   0  0  0  0  0  0  0  0  0  0  0  0
    3.5763    0.3216   -7.8683 O   0  0  0  0  0  0  0  0  0  0  0  0
    1.7553    1.5200   -6.6391 O   0  0  0  0  0  0  0  0  0  0  0  0
    1.8017   -0.9581   -6.6226 O   0  0  0  0  0  0  0  0  0  0  0  0
    2.8320    0.3422   -4.1342 F   0  0  0  0  0  0  0  0  0  0  0  0
    4.4299   -0.7322   -5.1491 F   0  0  0  0  0  0  0  0  0  0  0  0
    4.3836    1.4437   -5.1891 F   0  0  0  0  0  0  0  0  0  0  0  0
   -4.0820   -1.1310   -5.2245 O   0  0  0  0  0  0  0  0  0  0  0  0
   -5.4098   -0.8128   -4.7963 C   0  0  0  0  0  0  0  0  0  0  0  0
   -5.8945   -1.7711   -4.6154 H   0  0  0  0  0  0  0  0  0  0  0  0
   -5.9545   -0.2680   -5.5749 H   0  0  0  0  0  0  0  0  0  0  0  0
   -5.3953   -0.2293   -3.8695 H   0  0  0  0  0  0  0  0  0  0  0  0
  1  6  2  0  0  0  0
  2  3  2  0  0  0  0
  2  1  1  0  0  0  0
  3  4  1  0  0  0  0
  4  9  1  0  0  0  0
  4  5  2  0  0  0  0
  5 10  1  0  0  0  0
  6  5  1  0  0  0  0
  6 21  1  0  0  0  0
  7  1  1  0  0  0  0
  8  2  1  0  0  0  0
 11  3  1  0  0  0  0
 12 11  1  0  0  0  0
 13 16  2  0  0  0  0
 13 17  1  0  0  0  0
 13 14  1  0  0  0  0
 14 20  1  0  0  0  0
 14 19  1  0  0  0  0
 14 18  1  0  0  0  0
 15 13  2  0  0  0  0
 21 22  1  0  0  0  0
 22 23  1  0  0  0  0
 22 25  1  0  0  0  0
 24 22  1  0  0  0  0
M  RAD  3  11   2  12   3  17   2
M  END
