Coordinates from ORCA-job p-CH3O-Ph-N2-X-OTf-B3LYPG-6-31G_dp-scan-d09-49-n400
 OpenBabel08281821483D

 25 24  0  0  0  0  0  0  0  0999 V2000
   -2.0457   -0.8221   -4.3138 C   0  0  0  0  0  0  0  0  0  0  0  0
   -0.7610   -0.3313   -4.4816 C   0  0  0  0  0  0  0  0  0  0  0  0
   -0.4882    0.6947   -5.4102 C   0  0  0  0  0  0  0  0  0  0  0  0
   -1.5567    1.2144   -6.1608 C   0  0  0  0  0  0  0  0  0  0  0  0
   -2.8501    0.7151   -6.0056 C   0  0  0  0  0  0  0  0  0  0  0  0
   -3.1038   -0.3035   -5.0780 C   0  0  0  0  0  0  0  0  0  0  0  0
   -2.2588   -1.6156   -3.6046 H   0  0  0  0  0  0  0  0  0  0  0  0
    0.0632   -0.7395   -3.9052 H   0  0  0  0  0  0  0  0  0  0  0  0
   -1.3699    1.9997   -6.8834 H   0  0  0  0  0  0  0  0  0  0  0  0
   -3.6490    1.1321   -6.6066 H   0  0  0  0  0  0  0  0  0  0  0  0
    0.8309    1.1938   -5.4401 N   0  0  0  0  0  0  0  0  0  0  0  0
    1.0988    2.9228   -4.3485 N   0  0  0  0  0  0  0  0  0  0  0  0
    1.5836    1.6287   -6.8132 S   0  0  0  0  0  0  0  0  0  0  0  0
    2.7621    0.2054   -7.0840 C   0  0  0  0  0  0  0  0  0  0  0  0
    0.7678    1.6821   -8.0302 O   0  0  0  0  0  0  0  0  0  0  0  0
    2.4497    2.7739   -6.4570 O   0  0  0  0  0  0  0  0  0  0  0  0
    1.7863    2.7955   -3.6905 O   0  0  0  0  0  0  0  0  0  0  0  0
    2.0716   -0.9329   -7.2077 F   0  0  0  0  0  0  0  0  0  0  0  0
    3.4718    0.4130   -8.1962 F   0  0  0  0  0  0  0  0  0  0  0  0
    3.5998    0.0969   -6.0462 F   0  0  0  0  0  0  0  0  0  0  0  0
   -4.3292   -0.8525   -4.8414 O   0  0  0  0  0  0  0  0  0  0  0  0
   -5.4338   -0.3860   -5.6008 C   0  0  0  0  0  0  0  0  0  0  0  0
   -6.2976   -0.9563   -5.2570 H   0  0  0  0  0  0  0  0  0  0  0  0
   -5.2889   -0.5611   -6.6745 H   0  0  0  0  0  0  0  0  0  0  0  0
   -5.6185    0.6831   -5.4330 H   0  0  0  0  0  0  0  0  0  0  0  0
  1  7  1  0  0  0  0
  2  1  1  0  0  0  0
  2  8  1  0  0  0  0
  3  2  2  0  0  0  0
  4  5  2  0  0  0  0
  4  3  1  0  0  0  0
  5  6  1  0  0  0  0
  6 21  1  0  0  0  0
  6  1  2  0  0  0  0
  9  4  1  0  0  0  0
 10  5  1  0  0  0  0
 11  3  1  0  0  0  0
 12 17  2  0  0  0  0
 13 16  2  0  0  0  0
 13 11  1  0  0  0  0
 14 13  1  0  0  0  0
 14 20  1  0  0  0  0
 15 13  2  0  0  0  0
 18 14  1  0  0  0  0
 19 14  1  0  0  0  0
 22 25  1  0  0  0  0
 22 23  1  0  0  0  0
 22 21  1  0  0  0  0
 24 22  1  0  0  0  0
M  RAD  2  11   2  12   2
M  END
