Coordinates from ORCA-job p-CH3O-Ph-N2-X-OTf-B3LYPG-6-31G_dp-scan-d09-49-n400
 OpenBabel08281821483D

 25 25  0  0  0  0  0  0  0  0999 V2000
   -3.0564   -1.5101   -4.8956 C   0  0  0  0  0  0  0  0  0  0  0  0
   -1.6947   -1.3201   -5.0540 C   0  0  0  0  0  0  0  0  0  0  0  0
   -1.2071   -0.0922   -5.5280 C   0  0  0  0  0  0  0  0  0  0  0  0
   -2.0961    0.9476   -5.8405 C   0  0  0  0  0  0  0  0  0  0  0  0
   -3.4625    0.7614   -5.6819 C   0  0  0  0  0  0  0  0  0  0  0  0
   -3.9517   -0.4714   -5.2082 C   0  0  0  0  0  0  0  0  0  0  0  0
   -3.4586   -2.4488   -4.5317 H   0  0  0  0  0  0  0  0  0  0  0  0
   -0.9874   -2.1076   -4.8179 H   0  0  0  0  0  0  0  0  0  0  0  0
   -1.7136    1.8950   -6.2047 H   0  0  0  0  0  0  0  0  0  0  0  0
   -4.1386    1.5712   -5.9260 H   0  0  0  0  0  0  0  0  0  0  0  0
    0.1991    0.0019   -5.6576 N   0  0  0  0  0  0  0  0  0  0  0  0
    0.6871    1.0172   -6.0712 N   0  0  0  0  0  0  0  0  0  0  0  0
    3.0319    2.0547   -6.6533 S   0  0  0  0  0  0  0  0  0  0  0  0
    4.7611    1.4204   -6.3231 C   0  0  0  0  0  0  0  0  0  0  0  0
    2.8686    2.1556   -8.0980 O   0  0  0  0  0  0  0  0  0  0  0  0
    2.8119    3.2059   -5.7878 O   0  0  0  0  0  0  0  0  0  0  0  0
    2.2942    0.7341   -6.0709 O   0  0  0  0  0  0  0  0  0  0  0  0
    4.9366    1.2164   -5.0189 F   0  0  0  0  0  0  0  0  0  0  0  0
    4.9738    0.2862   -6.9880 F   0  0  0  0  0  0  0  0  0  0  0  0
    5.6172    2.3524   -6.7465 F   0  0  0  0  0  0  0  0  0  0  0  0
   -5.2605   -0.7516   -5.0209 O   0  0  0  0  0  0  0  0  0  0  0  0
   -6.2309    0.2513   -5.3105 C   0  0  0  0  0  0  0  0  0  0  0  0
   -7.1978   -0.1983   -5.0833 H   0  0  0  0  0  0  0  0  0  0  0  0
   -6.2040    0.5401   -6.3676 H   0  0  0  0  0  0  0  0  0  0  0  0
   -6.0873    1.1389   -4.6839 H   0  0  0  0  0  0  0  0  0  0  0  0
  1  7  1  0  0  0  0
  2  1  1  0  0  0  0
  2  8  1  0  0  0  0
  3  2  2  0  0  0  0
  4  5  2  0  0  0  0
  4  3  1  0  0  0  0
  5  6  1  0  0  0  0
  6 21  1  0  0  0  0
  6  1  2  0  0  0  0
  9  4  1  0  0  0  0
 10  5  1  0  0  0  0
 11  3  1  0  0  0  0
 12 17  1  0  0  0  0
 12 11  1  0  0  0  0
 13 14  1  0  0  0  0
 13 17  1  0  0  0  0
 13 16  2  0  0  0  0
 14 18  1  0  0  0  0
 15 13  2  0  0  0  0
 19 14  1  0  0  0  0
 20 14  1  0  0  0  0
 22 23  1  0  0  0  0
 22 21  1  0  0  0  0
 22 25  1  0  0  0  0
 24 22  1  0  0  0  0
M  RAD  2  11   2  12   2
M  END
