Coordinates from ORCA-job p-CH3O-Ph-N2-X-OTf-B3LYPG-6-31G_dp-scan-d09-49-n400
 OpenBabel08281821483D

 25 24  0  0  0  0  0  0  0  0999 V2000
   -2.0098   -0.8279   -5.2990 C   0  0  0  0  0  0  0  0  0  0  0  0
   -0.8825   -0.0423   -5.2081 C   0  0  0  0  0  0  0  0  0  0  0  0
   -1.0711    1.3569   -5.1980 C   0  0  0  0  0  0  0  0  0  0  0  0
   -2.3378    1.9655   -5.2852 C   0  0  0  0  0  0  0  0  0  0  0  0
   -3.4525    1.1552   -5.3865 C   0  0  0  0  0  0  0  0  0  0  0  0
   -3.2951   -0.2496   -5.3940 C   0  0  0  0  0  0  0  0  0  0  0  0
   -1.9280   -1.9091   -5.3178 H   0  0  0  0  0  0  0  0  0  0  0  0
    0.1322   -0.4508   -5.1708 H   0  0  0  0  0  0  0  0  0  0  0  0
   -2.4324    3.0461   -5.2818 H   0  0  0  0  0  0  0  0  0  0  0  0
   -4.4317    1.6094   -5.4629 H   0  0  0  0  0  0  0  0  0  0  0  0
    0.0133    2.1875   -5.0818 N   0  0  0  0  0  0  0  0  0  0  0  0
    0.8228    2.9359   -4.9115 N   0  0  0  0  0  0  0  0  0  0  0  0
    2.2727    0.0781   -6.8035 S   0  0  0  0  0  0  0  0  0  0  0  0
    3.7330    1.1467   -6.3826 C   0  0  0  0  0  0  0  0  0  0  0  0
    2.7173   -0.7352   -7.9397 O   0  0  0  0  0  0  0  0  0  0  0  0
    1.2096    1.0866   -7.0948 O   0  0  0  0  0  0  0  0  0  0  0  0
    2.0239   -0.6462   -5.5229 O   0  0  0  0  0  0  0  0  0  0  0  0
    3.4193    1.9770   -5.3560 F   0  0  0  0  0  0  0  0  0  0  0  0
    4.7858    0.4113   -6.0064 F   0  0  0  0  0  0  0  0  0  0  0  0
    4.0938    1.9087   -7.4243 F   0  0  0  0  0  0  0  0  0  0  0  0
   -4.3103   -1.1164   -5.4876 O   0  0  0  0  0  0  0  0  0  0  0  0
   -5.6511   -0.6337   -5.6142 C   0  0  0  0  0  0  0  0  0  0  0  0
   -6.2755   -1.5234   -5.6825 H   0  0  0  0  0  0  0  0  0  0  0  0
   -5.7680   -0.0326   -6.5221 H   0  0  0  0  0  0  0  0  0  0  0  0
   -5.9435   -0.0478   -4.7359 H   0  0  0  0  0  0  0  0  0  0  0  0
  1  2  2  0  0  0  0
  2  3  1  0  0  0  0
  2  8  1  0  0  0  0
  3 11  1  0  0  0  0
  4  9  1  0  0  0  0
  4  3  2  0  0  0  0
  5  4  1  0  0  0  0
  6  5  2  0  0  0  0
  6  1  1  0  0  0  0
  7  1  1  0  0  0  0
 10  5  1  0  0  0  0
 11 12  1  0  0  0  0
 13 14  1  0  0  0  0
 13 17  1  0  0  0  0
 14 19  1  0  0  0  0
 14 18  1  0  0  0  0
 15 13  2  0  0  0  0
 16 13  2  0  0  0  0
 20 14  1  0  0  0  0
 21  6  1  0  0  0  0
 22 21  1  0  0  0  0
 22 25  1  0  0  0  0
 23 22  1  0  0  0  0
 24 22  1  0  0  0  0
M  RAD  3  11   2  12   3  17   2
M  END
