Coordinates from ORCA-job p-CH3O-Ph-N2-X-OTf-B3LYPG-6-31G_dp-scan-d09-49-n400
 OpenBabel08281821483D

 25 24  0  0  0  0  0  0  0  0999 V2000
   -2.1066   -0.8969   -5.2881 C   0  0  0  0  0  0  0  0  0  0  0  0
   -0.9617   -0.1671   -5.0607 C   0  0  0  0  0  0  0  0  0  0  0  0
   -1.0867    1.2365   -4.9546 C   0  0  0  0  0  0  0  0  0  0  0  0
   -2.3160    1.8994   -5.0771 C   0  0  0  0  0  0  0  0  0  0  0  0
   -3.4558    1.1511   -5.3174 C   0  0  0  0  0  0  0  0  0  0  0  0
   -3.3568   -0.2525   -5.4247 C   0  0  0  0  0  0  0  0  0  0  0  0
   -2.0684   -1.9762   -5.3836 H   0  0  0  0  0  0  0  0  0  0  0  0
    0.0182   -0.6201   -4.9605 H   0  0  0  0  0  0  0  0  0  0  0  0
   -2.3658    2.9795   -4.9922 H   0  0  0  0  0  0  0  0  0  0  0  0
   -4.4085    1.6535   -5.4224 H   0  0  0  0  0  0  0  0  0  0  0  0
    0.0498    1.9691   -4.7218 N   0  0  0  0  0  0  0  0  0  0  0  0
    1.1102    2.3036   -4.5600 N   0  0  0  0  0  0  0  0  0  0  0  0
    2.3330    0.1689   -6.4822 S   0  0  0  0  0  0  0  0  0  0  0  0
    3.7641    1.2886   -6.8648 C   0  0  0  0  0  0  0  0  0  0  0  0
    2.7334   -1.1555   -6.9701 O   0  0  0  0  0  0  0  0  0  0  0  0
    1.1794    0.8208   -7.1456 O   0  0  0  0  0  0  0  0  0  0  0  0
    2.2388    0.2692   -4.9776 O   0  0  0  0  0  0  0  0  0  0  0  0
    3.5023    2.5383   -6.4324 F   0  0  0  0  0  0  0  0  0  0  0  0
    4.8808    0.8617   -6.2630 F   0  0  0  0  0  0  0  0  0  0  0  0
    3.9831    1.3410   -8.1854 F   0  0  0  0  0  0  0  0  0  0  0  0
   -4.3978   -1.0656   -5.6522 O   0  0  0  0  0  0  0  0  0  0  0  0
   -5.7052   -0.5126   -5.8238 C   0  0  0  0  0  0  0  0  0  0  0  0
   -6.3624   -1.3645   -5.9930 H   0  0  0  0  0  0  0  0  0  0  0  0
   -5.7396    0.1549   -6.6916 H   0  0  0  0  0  0  0  0  0  0  0  0
   -6.0275    0.0248   -4.9250 H   0  0  0  0  0  0  0  0  0  0  0  0
  1  2  2  0  0  0  0
  2  8  1  0  0  0  0
  2  3  1  0  0  0  0
  3 11  1  0  0  0  0
  4  9  1  0  0  0  0
  4  3  2  0  0  0  0
  5  4  1  0  0  0  0
  6  5  2  0  0  0  0
  6  1  1  0  0  0  0
  7  1  1  0  0  0  0
 10  5  1  0  0  0  0
 11 12  1  0  0  0  0
 13 17  1  0  0  0  0
 14 13  1  0  0  0  0
 14 18  1  0  0  0  0
 14 19  1  0  0  0  0
 15 13  2  0  0  0  0
 16 13  2  0  0  0  0
 20 14  1  0  0  0  0
 21  6  1  0  0  0  0
 22 21  1  0  0  0  0
 22 25  1  0  0  0  0
 23 22  1  0  0  0  0
 24 22  1  0  0  0  0
M  RAD  3  11   2  12   3  17   2
M  END
