Coordinates from ORCA-job p-CH3O-Ph-N2-X-OTf-B3LYPG-6-31G_dp-scan-d09-49-n400
 OpenBabel08281821483D

 25 24  0  0  0  0  0  0  0  0999 V2000
   -2.0644   -0.9120   -5.2118 C   0  0  0  0  0  0  0  0  0  0  0  0
   -0.9086   -0.1834   -5.0453 C   0  0  0  0  0  0  0  0  0  0  0  0
   -1.0212    1.2239   -5.0424 C   0  0  0  0  0  0  0  0  0  0  0  0
   -2.2446    1.8950   -5.2138 C   0  0  0  0  0  0  0  0  0  0  0  0
   -3.3919    1.1433   -5.3899 C   0  0  0  0  0  0  0  0  0  0  0  0
   -3.3089   -0.2667   -5.3896 C   0  0  0  0  0  0  0  0  0  0  0  0
   -2.0385   -1.9958   -5.2289 H   0  0  0  0  0  0  0  0  0  0  0  0
    0.0794   -0.6256   -4.9349 H   0  0  0  0  0  0  0  0  0  0  0  0
   -2.2830    2.9790   -5.2154 H   0  0  0  0  0  0  0  0  0  0  0  0
   -4.3386    1.6480   -5.5303 H   0  0  0  0  0  0  0  0  0  0  0  0
    0.0982    1.9915   -4.8524 N   0  0  0  0  0  0  0  0  0  0  0  0
    0.9591    2.6626   -4.6292 N   0  0  0  0  0  0  0  0  0  0  0  0
    2.2140    0.1470   -6.5991 S   0  0  0  0  0  0  0  0  0  0  0  0
    3.7051    1.2491   -6.7073 C   0  0  0  0  0  0  0  0  0  0  0  0
    2.5564   -1.0414   -7.3890 O   0  0  0  0  0  0  0  0  0  0  0  0
    1.1201    1.0075   -7.1330 O   0  0  0  0  0  0  0  0  0  0  0  0
    2.0794   -0.0601   -5.1225 O   0  0  0  0  0  0  0  0  0  0  0  0
    3.4833    2.3934   -6.0204 F   0  0  0  0  0  0  0  0  0  0  0  0
    4.7868    0.6575   -6.1851 F   0  0  0  0  0  0  0  0  0  0  0  0
    3.9708    1.5781   -7.9787 F   0  0  0  0  0  0  0  0  0  0  0  0
   -4.3596   -1.0805   -5.5500 O   0  0  0  0  0  0  0  0  0  0  0  0
   -5.6625   -0.5279   -5.7599 C   0  0  0  0  0  0  0  0  0  0  0  0
   -6.3287   -1.3834   -5.8620 H   0  0  0  0  0  0  0  0  0  0  0  0
   -5.6924    0.0716   -6.6758 H   0  0  0  0  0  0  0  0  0  0  0  0
   -5.9753    0.0795   -4.9033 H   0  0  0  0  0  0  0  0  0  0  0  0
  1  2  2  0  0  0  0
  2  3  1  0  0  0  0
  2  8  1  0  0  0  0
  3 11  1  0  0  0  0
  4  3  2  0  0  0  0
  5  6  2  0  0  0  0
  5  4  1  0  0  0  0
  6  1  1  0  0  0  0
  7  1  1  0  0  0  0
  9  4  1  0  0  0  0
 10  5  1  0  0  0  0
 11 12  1  0  0  0  0
 13 17  1  0  0  0  0
 14 13  1  0  0  0  0
 14 19  1  0  0  0  0
 14 18  1  0  0  0  0
 15 13  2  0  0  0  0
 16 13  2  0  0  0  0
 20 14  1  0  0  0  0
 21  6  1  0  0  0  0
 22 21  1  0  0  0  0
 22 25  1  0  0  0  0
 23 22  1  0  0  0  0
 24 22  1  0  0  0  0
M  RAD  3  11   2  12   3  17   2
M  END
