Coordinates from ORCA-job p-CH3O-Ph-N2-X-OTf-B3LYPG-6-31G_dp-scan-d09-49-n400
 OpenBabel08281821483D

 25 25  0  0  0  0  0  0  0  0999 V2000
   -1.9364   -0.9042   -4.6524 C   0  0  0  0  0  0  0  0  0  0  0  0
   -0.6994   -0.2924   -4.7859 C   0  0  0  0  0  0  0  0  0  0  0  0
   -0.5886    0.9336   -5.4572 C   0  0  0  0  0  0  0  0  0  0  0  0
   -1.7268    1.5321   -5.9993 C   0  0  0  0  0  0  0  0  0  0  0  0
   -2.9727    0.9183   -5.8802 C   0  0  0  0  0  0  0  0  0  0  0  0
   -3.0819   -0.3043   -5.2016 C   0  0  0  0  0  0  0  0  0  0  0  0
   -2.0446   -1.8509   -4.1349 H   0  0  0  0  0  0  0  0  0  0  0  0
    0.1904   -0.7586   -4.3767 H   0  0  0  0  0  0  0  0  0  0  0  0
   -1.6364    2.4808   -6.5168 H   0  0  0  0  0  0  0  0  0  0  0  0
   -3.8429    1.3978   -6.3106 H   0  0  0  0  0  0  0  0  0  0  0  0
    0.6855    1.5796   -5.5432 N   0  0  0  0  0  0  0  0  0  0  0  0
    1.1198    2.2881   -4.2696 N   0  0  0  0  0  0  0  0  0  0  0  0
    1.5856    1.5726   -6.9971 S   0  0  0  0  0  0  0  0  0  0  0  0
    2.8103    0.1989   -6.6549 C   0  0  0  0  0  0  0  0  0  0  0  0
    0.7283    1.1059   -8.0791 O   0  0  0  0  0  0  0  0  0  0  0  0
    2.3527    2.8068   -7.0765 O   0  0  0  0  0  0  0  0  0  0  0  0
    2.1704    2.7057   -4.2569 O   0  0  0  0  0  0  0  0  0  0  0  0
    2.1526   -0.9494   -6.4703 F   0  0  0  0  0  0  0  0  0  0  0  0
    3.6344    0.0813   -7.6924 F   0  0  0  0  0  0  0  0  0  0  0  0
    3.5079    0.4874   -5.5543 F   0  0  0  0  0  0  0  0  0  0  0  0
   -4.2438   -0.9852   -5.0214 O   0  0  0  0  0  0  0  0  0  0  0  0
   -5.4415   -0.4410   -5.5611 C   0  0  0  0  0  0  0  0  0  0  0  0
   -6.2332   -1.1447   -5.3009 H   0  0  0  0  0  0  0  0  0  0  0  0
   -5.3839   -0.3463   -6.6525 H   0  0  0  0  0  0  0  0  0  0  0  0
   -5.6715    0.5386   -5.1243 H   0  0  0  0  0  0  0  0  0  0  0  0
  1  7  1  0  0  0  0
  2  1  1  0  0  0  0
  2  8  1  0  0  0  0
  3  2  2  0  0  0  0
  4  5  2  0  0  0  0
  4  3  1  0  0  0  0
  5  6  1  0  0  0  0
  6 21  1  0  0  0  0
  6  1  2  0  0  0  0
  9  4  1  0  0  0  0
 10  5  1  0  0  0  0
 11  3  1  0  0  0  0
 11 12  1  0  0  0  0
 12 17  2  0  0  0  0
 13 14  1  0  0  0  0
 13 11  1  0  0  0  0
 14 18  1  0  0  0  0
 14 20  1  0  0  0  0
 15 13  2  0  0  0  0
 16 13  2  0  0  0  0
 19 14  1  0  0  0  0
 22 23  1  0  0  0  0
 22 25  1  0  0  0  0
 22 21  1  0  0  0  0
 24 22  1  0  0  0  0
M  END
