Coordinates from ORCA-job p-CH3O-Ph-N2-X-OTf-B3LYPG-6-31G_dp-scan-d09-49-n400
 OpenBabel08281821483D

 25 24  0  0  0  0  0  0  0  0999 V2000
   -2.2057   -0.8756   -5.4602 C   0  0  0  0  0  0  0  0  0  0  0  0
   -1.0655   -0.1070   -5.3548 C   0  0  0  0  0  0  0  0  0  0  0  0
   -1.2147    1.2882   -5.1917 C   0  0  0  0  0  0  0  0  0  0  0  0
   -2.4772    1.8935   -5.1332 C   0  0  0  0  0  0  0  0  0  0  0  0
   -3.6165    1.1113   -5.2437 C   0  0  0  0  0  0  0  0  0  0  0  0
   -3.4853   -0.2814   -5.4085 C   0  0  0  0  0  0  0  0  0  0  0  0
   -2.1414   -1.9503   -5.5906 H   0  0  0  0  0  0  0  0  0  0  0  0
   -0.0713   -0.5360   -5.3920 H   0  0  0  0  0  0  0  0  0  0  0  0
   -2.5520    2.9682   -5.0062 H   0  0  0  0  0  0  0  0  0  0  0  0
   -4.5909    1.5807   -5.2035 H   0  0  0  0  0  0  0  0  0  0  0  0
   -0.1042    2.1106   -5.0841 N   0  0  0  0  0  0  0  0  0  0  0  0
    1.0311    2.2654   -5.0975 N   0  0  0  0  0  0  0  0  0  0  0  0
    2.4979    0.4128   -6.7760 S   0  0  0  0  0  0  0  0  0  0  0  0
    4.1781    1.1671   -6.5334 C   0  0  0  0  0  0  0  0  0  0  0  0
    2.7324   -0.9841   -7.1444 O   0  0  0  0  0  0  0  0  0  0  0  0
    1.8009    1.3008   -7.7151 O   0  0  0  0  0  0  0  0  0  0  0  0
    1.9109    0.5184   -5.3527 O   0  0  0  0  0  0  0  0  0  0  0  0
    4.0550    2.4239   -6.0812 F   0  0  0  0  0  0  0  0  0  0  0  0
    4.8872    0.4597   -5.6479 F   0  0  0  0  0  0  0  0  0  0  0  0
    4.8384    1.1914   -7.6964 F   0  0  0  0  0  0  0  0  0  0  0  0
   -4.5194   -1.1321   -5.5238 O   0  0  0  0  0  0  0  0  0  0  0  0
   -5.8537   -0.6243   -5.4882 C   0  0  0  0  0  0  0  0  0  0  0  0
   -6.5014   -1.4929   -5.6013 H   0  0  0  0  0  0  0  0  0  0  0  0
   -6.0328    0.0754   -6.3120 H   0  0  0  0  0  0  0  0  0  0  0  0
   -6.0654   -0.1336   -4.5314 H   0  0  0  0  0  0  0  0  0  0  0  0
  1  6  2  0  0  0  0
  1  2  1  0  0  0  0
  2  3  2  0  0  0  0
  3  4  1  0  0  0  0
  3 11  1  0  0  0  0
  4  9  1  0  0  0  0
  5 10  1  0  0  0  0
  5  4  2  0  0  0  0
  6  5  1  0  0  0  0
  7  1  1  0  0  0  0
  8  2  1  0  0  0  0
 12 11  2  0  0  0  0
 13 14  1  0  0  0  0
 13 17  1  0  0  0  0
 14 18  1  0  0  0  0
 14 19  1  0  0  0  0
 15 13  2  0  0  0  0
 16 13  2  0  0  0  0
 20 14  1  0  0  0  0
 21 22  1  0  0  0  0
 21  6  1  0  0  0  0
 22 25  1  0  0  0  0
 23 22  1  0  0  0  0
 24 22  1  0  0  0  0
M  RAD  2  12   2  17   2
M  END
