Coordinates from ORCA-job p-CH3O-Ph-N2-X-OTf-B3LYPG-6-31G_dp-scan-d09-49-n400
 OpenBabel08281821483D

 25 24  0  0  0  0  0  0  0  0999 V2000
   -2.0708   -0.8976   -5.2268 C   0  0  0  0  0  0  0  0  0  0  0  0
   -0.9270   -0.1636   -5.0113 C   0  0  0  0  0  0  0  0  0  0  0  0
   -1.0542    1.2435   -4.9608 C   0  0  0  0  0  0  0  0  0  0  0  0
   -2.2797    1.9075   -5.1288 C   0  0  0  0  0  0  0  0  0  0  0  0
   -3.4158    1.1515   -5.3556 C   0  0  0  0  0  0  0  0  0  0  0  0
   -3.3178   -0.2566   -5.4057 C   0  0  0  0  0  0  0  0  0  0  0  0
   -2.0336   -1.9796   -5.2832 H   0  0  0  0  0  0  0  0  0  0  0  0
    0.0581   -0.6051   -4.8903 H   0  0  0  0  0  0  0  0  0  0  0  0
   -2.3287    2.9902   -5.0896 H   0  0  0  0  0  0  0  0  0  0  0  0
   -4.3655    1.6508   -5.4958 H   0  0  0  0  0  0  0  0  0  0  0  0
    0.0733    1.9846   -4.7359 N   0  0  0  0  0  0  0  0  0  0  0  0
    1.0526    2.4846   -4.5447 N   0  0  0  0  0  0  0  0  0  0  0  0
    2.2431    0.1561   -6.5285 S   0  0  0  0  0  0  0  0  0  0  0  0
    3.7101    1.2573   -6.8189 C   0  0  0  0  0  0  0  0  0  0  0  0
    2.5777   -1.1128   -7.1866 O   0  0  0  0  0  0  0  0  0  0  0  0
    1.1108    0.9298   -7.1048 O   0  0  0  0  0  0  0  0  0  0  0  0
    2.1728    0.1051   -5.0304 O   0  0  0  0  0  0  0  0  0  0  0  0
    3.5040    2.4647   -6.2490 F   0  0  0  0  0  0  0  0  0  0  0  0
    4.8211    0.7315   -6.2872 F   0  0  0  0  0  0  0  0  0  0  0  0
    3.9144    1.4486   -8.1296 F   0  0  0  0  0  0  0  0  0  0  0  0
   -4.3565   -1.0745   -5.6162 O   0  0  0  0  0  0  0  0  0  0  0  0
   -5.6612   -0.5280   -5.8306 C   0  0  0  0  0  0  0  0  0  0  0  0
   -6.3161   -1.3862   -5.9748 H   0  0  0  0  0  0  0  0  0  0  0  0
   -5.6808    0.1028   -6.7255 H   0  0  0  0  0  0  0  0  0  0  0  0
   -5.9961    0.0455   -4.9592 H   0  0  0  0  0  0  0  0  0  0  0  0
  1  2  2  0  0  0  0
  2  3  1  0  0  0  0
  2  8  1  0  0  0  0
  3 11  1  0  0  0  0
  4  9  1  0  0  0  0
  4  3  2  0  0  0  0
  5  4  1  0  0  0  0
  6  5  2  0  0  0  0
  6  1  1  0  0  0  0
  7  1  1  0  0  0  0
 10  5  1  0  0  0  0
 11 12  1  0  0  0  0
 13 17  1  0  0  0  0
 14 13  1  0  0  0  0
 14 19  1  0  0  0  0
 14 18  1  0  0  0  0
 15 13  2  0  0  0  0
 16 13  2  0  0  0  0
 20 14  1  0  0  0  0
 21  6  1  0  0  0  0
 22 21  1  0  0  0  0
 22 25  1  0  0  0  0
 23 22  1  0  0  0  0
 24 22  1  0  0  0  0
M  RAD  3  11   2  12   3  17   2
M  END
