Coordinates from ORCA-job p-CH3O-Ph-N2-X-OTf-B3LYPG-6-31G_dp-scan-d09-49-n400
 OpenBabel08281821483D

 25 24  0  0  0  0  0  0  0  0999 V2000
   -2.0457   -0.8770   -5.2368 C   0  0  0  0  0  0  0  0  0  0  0  0
   -0.8987   -0.1265   -5.1081 C   0  0  0  0  0  0  0  0  0  0  0  0
   -1.0396    1.2779   -5.1140 C   0  0  0  0  0  0  0  0  0  0  0  0
   -2.2803    1.9259   -5.2566 C   0  0  0  0  0  0  0  0  0  0  0  0
   -3.4170    1.1513   -5.3950 C   0  0  0  0  0  0  0  0  0  0  0  0
   -3.3067   -0.2573   -5.3851 C   0  0  0  0  0  0  0  0  0  0  0  0
   -1.9998   -1.9603   -5.2447 H   0  0  0  0  0  0  0  0  0  0  0  0
    0.1021   -0.5536   -5.0258 H   0  0  0  0  0  0  0  0  0  0  0  0
   -2.3394    3.0089   -5.2658 H   0  0  0  0  0  0  0  0  0  0  0  0
   -4.3767    1.6368   -5.5133 H   0  0  0  0  0  0  0  0  0  0  0  0
    0.0666    2.0734   -4.9578 N   0  0  0  0  0  0  0  0  0  0  0  0
    0.8899    2.7958   -4.7490 N   0  0  0  0  0  0  0  0  0  0  0  0
    2.2370    0.1033   -6.6886 S   0  0  0  0  0  0  0  0  0  0  0  0
    3.7278    1.2060   -6.5764 C   0  0  0  0  0  0  0  0  0  0  0  0
    2.6024   -0.9311   -7.6624 O   0  0  0  0  0  0  0  0  0  0  0  0
    1.1586    1.0484   -7.1044 O   0  0  0  0  0  0  0  0  0  0  0  0
    2.0664   -0.3466   -5.2740 O   0  0  0  0  0  0  0  0  0  0  0  0
    3.4938    2.2138   -5.7018 F   0  0  0  0  0  0  0  0  0  0  0  0
    4.8020    0.5317   -6.1478 F   0  0  0  0  0  0  0  0  0  0  0  0
    4.0145    1.7544   -7.7647 F   0  0  0  0  0  0  0  0  0  0  0  0
   -4.3459   -1.0918   -5.5096 O   0  0  0  0  0  0  0  0  0  0  0  0
   -5.6645   -0.5660   -5.6879 C   0  0  0  0  0  0  0  0  0  0  0  0
   -6.3163   -1.4350   -5.7666 H   0  0  0  0  0  0  0  0  0  0  0  0
   -5.7304    0.0265   -6.6065 H   0  0  0  0  0  0  0  0  0  0  0  0
   -5.9660    0.0412   -4.8272 H   0  0  0  0  0  0  0  0  0  0  0  0
  1  2  2  0  0  0  0
  2  8  1  0  0  0  0
  3  2  1  0  0  0  0
  3 11  1  0  0  0  0
  4  3  2  0  0  0  0
  5  6  2  0  0  0  0
  5  4  1  0  0  0  0
  6  1  1  0  0  0  0
  7  1  1  0  0  0  0
  9  4  1  0  0  0  0
 10  5  1  0  0  0  0
 11 12  1  0  0  0  0
 13 14  1  0  0  0  0
 13 17  1  0  0  0  0
 14 19  1  0  0  0  0
 14 18  1  0  0  0  0
 15 13  2  0  0  0  0
 16 13  2  0  0  0  0
 20 14  1  0  0  0  0
 21  6  1  0  0  0  0
 22 21  1  0  0  0  0
 22 25  1  0  0  0  0
 23 22  1  0  0  0  0
 24 22  1  0  0  0  0
M  RAD  3  11   2  12   3  17   2
M  END
