Coordinates from ORCA-job p-CH3O-Ph-N2-X-OTf-B3LYPG-6-31G_dp-scan-d09-49-n400
 OpenBabel08281821483D

 25 24  0  0  0  0  0  0  0  0999 V2000
   -2.0673   -0.9076   -5.2119 C   0  0  0  0  0  0  0  0  0  0  0  0
   -0.9175   -0.1779   -5.0150 C   0  0  0  0  0  0  0  0  0  0  0  0
   -1.0355    1.2301   -4.9885 C   0  0  0  0  0  0  0  0  0  0  0  0
   -2.2572    1.8999   -5.1667 C   0  0  0  0  0  0  0  0  0  0  0  0
   -3.3990    1.1474   -5.3744 C   0  0  0  0  0  0  0  0  0  0  0  0
   -3.3109   -0.2621   -5.3978 C   0  0  0  0  0  0  0  0  0  0  0  0
   -2.0376   -1.9908   -5.2484 H   0  0  0  0  0  0  0  0  0  0  0  0
    0.0677   -0.6209   -4.8938 H   0  0  0  0  0  0  0  0  0  0  0  0
   -2.2989    2.9835   -5.1494 H   0  0  0  0  0  0  0  0  0  0  0  0
   -4.3456    1.6507   -5.5207 H   0  0  0  0  0  0  0  0  0  0  0  0
    0.0904    1.9778   -4.7746 N   0  0  0  0  0  0  0  0  0  0  0  0
    1.0211    2.5485   -4.5509 N   0  0  0  0  0  0  0  0  0  0  0  0
    2.2213    0.1564   -6.5529 S   0  0  0  0  0  0  0  0  0  0  0  0
    3.6983    1.2584   -6.7825 C   0  0  0  0  0  0  0  0  0  0  0  0
    2.5513   -1.0836   -7.2660 O   0  0  0  0  0  0  0  0  0  0  0  0
    1.1020    0.9663   -7.1088 O   0  0  0  0  0  0  0  0  0  0  0  0
    2.1339    0.0472   -5.0611 O   0  0  0  0  0  0  0  0  0  0  0  0
    3.4914    2.4434   -6.1656 F   0  0  0  0  0  0  0  0  0  0  0  0
    4.8008    0.7065   -6.2596 F   0  0  0  0  0  0  0  0  0  0  0  0
    3.9191    1.5029   -8.0816 F   0  0  0  0  0  0  0  0  0  0  0  0
   -4.3560   -1.0765   -5.5889 O   0  0  0  0  0  0  0  0  0  0  0  0
   -5.6575   -0.5249   -5.8099 C   0  0  0  0  0  0  0  0  0  0  0  0
   -6.3188   -1.3811   -5.9361 H   0  0  0  0  0  0  0  0  0  0  0  0
   -5.6754    0.0891   -6.7165 H   0  0  0  0  0  0  0  0  0  0  0  0
   -5.9858    0.0673   -4.9485 H   0  0  0  0  0  0  0  0  0  0  0  0
  1  2  2  0  0  0  0
  2  3  1  0  0  0  0
  2  8  1  0  0  0  0
  3 11  1  0  0  0  0
  4  9  1  0  0  0  0
  4  3  2  0  0  0  0
  5  4  1  0  0  0  0
  6  5  2  0  0  0  0
  6  1  1  0  0  0  0
  7  1  1  0  0  0  0
 10  5  1  0  0  0  0
 11 12  1  0  0  0  0
 13 17  1  0  0  0  0
 14 13  1  0  0  0  0
 14 19  1  0  0  0  0
 14 18  1  0  0  0  0
 15 13  2  0  0  0  0
 16 13  2  0  0  0  0
 20 14  1  0  0  0  0
 21  6  1  0  0  0  0
 22 21  1  0  0  0  0
 22 25  1  0  0  0  0
 23 22  1  0  0  0  0
 24 22  1  0  0  0  0
M  RAD  3  11   2  12   3  17   2
M  END
