Coordinates from ORCA-job p-CH3O-Ph-N2-X-OTf-B3LYPG-6-31G_dp-scan-d09-49-n400
 OpenBabel08281821483D

 25 24  0  0  0  0  0  0  0  0999 V2000
   -1.9562   -0.7729   -5.4855 C   0  0  0  0  0  0  0  0  0  0  0  0
   -0.8529    0.0529   -5.4958 C   0  0  0  0  0  0  0  0  0  0  0  0
   -1.0902    1.4434   -5.4313 C   0  0  0  0  0  0  0  0  0  0  0  0
   -2.3836    2.0008   -5.3641 C   0  0  0  0  0  0  0  0  0  0  0  0
   -3.4723    1.1512   -5.3660 C   0  0  0  0  0  0  0  0  0  0  0  0
   -3.2648   -0.2461   -5.4264 C   0  0  0  0  0  0  0  0  0  0  0  0
   -1.8339   -1.8490   -5.5395 H   0  0  0  0  0  0  0  0  0  0  0  0
    0.1634   -0.3470   -5.5735 H   0  0  0  0  0  0  0  0  0  0  0  0
   -2.5172    3.0765   -5.3198 H   0  0  0  0  0  0  0  0  0  0  0  0
   -4.4698    1.5686   -5.3226 H   0  0  0  0  0  0  0  0  0  0  0  0
   -0.0433    2.3302   -5.4017 N   0  0  0  0  0  0  0  0  0  0  0  0
    0.7136    3.1438   -5.3000 N   0  0  0  0  0  0  0  0  0  0  0  0
    2.3782    0.1178   -7.0030 S   0  0  0  0  0  0  0  0  0  0  0  0
    3.6335    1.0257   -5.9759 C   0  0  0  0  0  0  0  0  0  0  0  0
    3.1101   -0.3048   -8.1997 O   0  0  0  0  0  0  0  0  0  0  0  0
    1.3369    1.1716   -7.2101 O   0  0  0  0  0  0  0  0  0  0  0  0
    1.9173   -0.9606   -6.0844 O   0  0  0  0  0  0  0  0  0  0  0  0
    3.0287    1.5699   -4.8848 F   0  0  0  0  0  0  0  0  0  0  0  0
    4.6022    0.2132   -5.5407 F   0  0  0  0  0  0  0  0  0  0  0  0
    4.1941    2.0289   -6.6652 F   0  0  0  0  0  0  0  0  0  0  0  0
   -4.2514   -1.1498   -5.4323 O   0  0  0  0  0  0  0  0  0  0  0  0
   -5.6148   -0.7181   -5.3937 C   0  0  0  0  0  0  0  0  0  0  0  0
   -6.2098   -1.6299   -5.4173 H   0  0  0  0  0  0  0  0  0  0  0  0
   -5.8563   -0.0999   -6.2650 H   0  0  0  0  0  0  0  0  0  0  0  0
   -5.8272   -0.1661   -4.4716 H   0  0  0  0  0  0  0  0  0  0  0  0
  1  6  1  0  0  0  0
  2  1  2  0  0  0  0
  2  3  1  0  0  0  0
  3 11  1  0  0  0  0
  3  4  2  0  0  0  0
  4  9  1  0  0  0  0
  5  4  1  0  0  0  0
  5 10  1  0  0  0  0
  6  5  2  0  0  0  0
  7  1  1  0  0  0  0
  8  2  1  0  0  0  0
 11 12  1  0  0  0  0
 13 17  1  0  0  0  0
 13 14  1  0  0  0  0
 14 19  1  0  0  0  0
 14 18  1  0  0  0  0
 15 13  2  0  0  0  0
 16 13  2  0  0  0  0
 20 14  1  0  0  0  0
 21  6  1  0  0  0  0
 21 22  1  0  0  0  0
 22 25  1  0  0  0  0
 23 22  1  0  0  0  0
 24 22  1  0  0  0  0
M  RAD  3  11   2  12   3  17   2
M  END
