Coordinates from ORCA-job p-CH3O-Ph-N2-X-OTf-B3LYPG-6-31G_dp-scan-d09-49-n400
 OpenBabel08281821483D

 25 24  0  0  0  0  0  0  0  0999 V2000
   -2.0683   -0.9076   -5.2125 C   0  0  0  0  0  0  0  0  0  0  0  0
   -0.9186   -0.1779   -5.0148 C   0  0  0  0  0  0  0  0  0  0  0  0
   -1.0366    1.2300   -4.9871 C   0  0  0  0  0  0  0  0  0  0  0  0
   -2.2583    1.8999   -5.1650 C   0  0  0  0  0  0  0  0  0  0  0  0
   -3.4001    1.1475   -5.3735 C   0  0  0  0  0  0  0  0  0  0  0  0
   -3.3119   -0.2619   -5.3982 C   0  0  0  0  0  0  0  0  0  0  0  0
   -2.0385   -1.9908   -5.2499 H   0  0  0  0  0  0  0  0  0  0  0  0
    0.0665   -0.6211   -4.8935 H   0  0  0  0  0  0  0  0  0  0  0  0
   -2.2999    2.9835   -5.1466 H   0  0  0  0  0  0  0  0  0  0  0  0
   -4.3466    1.6509   -5.5196 H   0  0  0  0  0  0  0  0  0  0  0  0
    0.0898    1.9767   -4.7727 N   0  0  0  0  0  0  0  0  0  0  0  0
    1.0239    2.5424   -4.5497 N   0  0  0  0  0  0  0  0  0  0  0  0
    2.2233    0.1571   -6.5513 S   0  0  0  0  0  0  0  0  0  0  0  0
    3.6995    1.2594   -6.7849 C   0  0  0  0  0  0  0  0  0  0  0  0
    2.5542   -1.0850   -7.2603 O   0  0  0  0  0  0  0  0  0  0  0  0
    1.1030    0.9640   -7.1091 O   0  0  0  0  0  0  0  0  0  0  0  0
    2.1366    0.0521   -5.0590 O   0  0  0  0  0  0  0  0  0  0  0  0
    3.4922    2.4461   -6.1716 F   0  0  0  0  0  0  0  0  0  0  0  0
    4.8025    0.7097   -6.2610 F   0  0  0  0  0  0  0  0  0  0  0  0
    3.9194    1.5000   -8.0848 F   0  0  0  0  0  0  0  0  0  0  0  0
   -4.3568   -1.0763   -5.5901 O   0  0  0  0  0  0  0  0  0  0  0  0
   -5.6584   -0.5246   -5.8109 C   0  0  0  0  0  0  0  0  0  0  0  0
   -6.3196   -1.3807   -5.9379 H   0  0  0  0  0  0  0  0  0  0  0  0
   -5.6761    0.0901   -6.7169 H   0  0  0  0  0  0  0  0  0  0  0  0
   -5.9868    0.0669   -4.9490 H   0  0  0  0  0  0  0  0  0  0  0  0
  1  2  2  0  0  0  0
  2  3  1  0  0  0  0
  2  8  1  0  0  0  0
  3 11  1  0  0  0  0
  4  9  1  0  0  0  0
  4  3  2  0  0  0  0
  5  4  1  0  0  0  0
  6  5  2  0  0  0  0
  6  1  1  0  0  0  0
  7  1  1  0  0  0  0
 10  5  1  0  0  0  0
 11 12  1  0  0  0  0
 13 17  1  0  0  0  0
 14 13  1  0  0  0  0
 14 19  1  0  0  0  0
 14 18  1  0  0  0  0
 15 13  2  0  0  0  0
 16 13  2  0  0  0  0
 20 14  1  0  0  0  0
 21  6  1  0  0  0  0
 22 21  1  0  0  0  0
 22 25  1  0  0  0  0
 23 22  1  0  0  0  0
 24 22  1  0  0  0  0
M  RAD  3  11   2  12   3  17   2
M  END
