Coordinates from ORCA-job p-CH3O-Ph-N2-X-OTf-B3LYPG-6-31G_dp-scan-d09-49-n400
 OpenBabel08281821483D

 25 24  0  0  0  0  0  0  0  0999 V2000
   -2.1096   -0.8910   -5.3017 C   0  0  0  0  0  0  0  0  0  0  0  0
   -0.9675   -0.1559   -5.0754 C   0  0  0  0  0  0  0  0  0  0  0  0
   -1.0991    1.2460   -4.9587 C   0  0  0  0  0  0  0  0  0  0  0  0
   -2.3333    1.9011   -5.0683 C   0  0  0  0  0  0  0  0  0  0  0  0
   -3.4709    1.1483   -5.3073 C   0  0  0  0  0  0  0  0  0  0  0  0
   -3.3645   -0.2535   -5.4258 C   0  0  0  0  0  0  0  0  0  0  0  0
   -2.0655   -1.9694   -5.4047 H   0  0  0  0  0  0  0  0  0  0  0  0
    0.0144   -0.6058   -4.9829 H   0  0  0  0  0  0  0  0  0  0  0  0
   -2.3889    2.9802   -4.9746 H   0  0  0  0  0  0  0  0  0  0  0  0
   -4.4271    1.6461   -5.4027 H   0  0  0  0  0  0  0  0  0  0  0  0
    0.0343    1.9884   -4.7291 N   0  0  0  0  0  0  0  0  0  0  0  0
    1.1105    2.2884   -4.5874 N   0  0  0  0  0  0  0  0  0  0  0  0
    2.3359    0.1915   -6.4942 S   0  0  0  0  0  0  0  0  0  0  0  0
    3.7999    1.2744   -6.8575 C   0  0  0  0  0  0  0  0  0  0  0  0
    2.7176   -1.1485   -6.9526 O   0  0  0  0  0  0  0  0  0  0  0  0
    1.2090    0.8593   -7.1836 O   0  0  0  0  0  0  0  0  0  0  0  0
    2.2157    0.3077   -4.9891 O   0  0  0  0  0  0  0  0  0  0  0  0
    3.5639    2.5298   -6.4301 F   0  0  0  0  0  0  0  0  0  0  0  0
    4.8961    0.8184   -6.2402 F   0  0  0  0  0  0  0  0  0  0  0  0
    4.0368    1.3177   -8.1752 F   0  0  0  0  0  0  0  0  0  0  0  0
   -4.4020   -1.0717   -5.6532 O   0  0  0  0  0  0  0  0  0  0  0  0
   -5.7135   -0.5250   -5.8117 C   0  0  0  0  0  0  0  0  0  0  0  0
   -6.3673   -1.3792   -5.9827 H   0  0  0  0  0  0  0  0  0  0  0  0
   -5.7579    0.1488   -6.6742 H   0  0  0  0  0  0  0  0  0  0  0  0
   -6.0328    0.0040   -4.9069 H   0  0  0  0  0  0  0  0  0  0  0  0
  1  2  2  0  0  0  0
  2  8  1  0  0  0  0
  2  3  1  0  0  0  0
  3 11  1  0  0  0  0
  4  9  1  0  0  0  0
  4  3  2  0  0  0  0
  5  4  1  0  0  0  0
  6  5  2  0  0  0  0
  6  1  1  0  0  0  0
  7  1  1  0  0  0  0
 10  5  1  0  0  0  0
 11 12  1  0  0  0  0
 13 17  1  0  0  0  0
 14 13  1  0  0  0  0
 14 18  1  0  0  0  0
 14 19  1  0  0  0  0
 15 13  2  0  0  0  0
 16 13  2  0  0  0  0
 20 14  1  0  0  0  0
 21  6  1  0  0  0  0
 22 21  1  0  0  0  0
 22 25  1  0  0  0  0
 23 22  1  0  0  0  0
 24 22  1  0  0  0  0
M  RAD  3  11   2  12   3  17   2
M  END
