Coordinates from ORCA-job p-CH3O-Ph-N2-X-OTf-B3LYPG-6-31G_dp-scan-d09-49-n400
 OpenBabel08281821483D

 25 24  0  0  0  0  0  0  0  0999 V2000
   -1.8665   -0.7044   -5.6160 C   0  0  0  0  0  0  0  0  0  0  0  0
   -0.7962    0.1536   -5.7527 C   0  0  0  0  0  0  0  0  0  0  0  0
   -1.0658    1.5375   -5.6846 C   0  0  0  0  0  0  0  0  0  0  0  0
   -2.3648    2.0531   -5.4848 C   0  0  0  0  0  0  0  0  0  0  0  0
   -3.4205    1.1725   -5.3592 C   0  0  0  0  0  0  0  0  0  0  0  0
   -3.1776   -0.2187   -5.4246 C   0  0  0  0  0  0  0  0  0  0  0  0
   -1.7127   -1.7765   -5.6680 H   0  0  0  0  0  0  0  0  0  0  0  0
    0.2078   -0.2350   -5.9249 H   0  0  0  0  0  0  0  0  0  0  0  0
   -2.5277    3.1247   -5.4391 H   0  0  0  0  0  0  0  0  0  0  0  0
   -4.4197    1.5617   -5.2129 H   0  0  0  0  0  0  0  0  0  0  0  0
   -0.0671    2.4765   -5.7854 N   0  0  0  0  0  0  0  0  0  0  0  0
    0.6004    3.3716   -5.7908 N   0  0  0  0  0  0  0  0  0  0  0  0
    2.4691    0.1719   -7.1621 S   0  0  0  0  0  0  0  0  0  0  0  0
    3.3256    0.7945   -5.6330 C   0  0  0  0  0  0  0  0  0  0  0  0
    3.5252    0.0572   -8.1698 O   0  0  0  0  0  0  0  0  0  0  0  0
    1.4690    1.2652   -7.3849 O   0  0  0  0  0  0  0  0  0  0  0  0
    1.8420   -1.0919   -6.6905 O   0  0  0  0  0  0  0  0  0  0  0  0
    2.3975    1.0514   -4.6671 F   0  0  0  0  0  0  0  0  0  0  0  0
    4.1916   -0.0950   -5.1386 F   0  0  0  0  0  0  0  0  0  0  0  0
    3.9792    1.9421   -5.8677 F   0  0  0  0  0  0  0  0  0  0  0  0
   -4.1304   -1.1516   -5.3155 O   0  0  0  0  0  0  0  0  0  0  0  0
   -5.4943   -0.7596   -5.1338 C   0  0  0  0  0  0  0  0  0  0  0  0
   -6.0600   -1.6886   -5.0813 H   0  0  0  0  0  0  0  0  0  0  0  0
   -5.8482   -0.1627   -5.9815 H   0  0  0  0  0  0  0  0  0  0  0  0
   -5.6217   -0.1994   -4.2012 H   0  0  0  0  0  0  0  0  0  0  0  0
  1  6  2  0  0  0  0
  2  3  2  0  0  0  0
  2  1  1  0  0  0  0
  3  4  1  0  0  0  0
  4  9  1  0  0  0  0
  4  5  2  0  0  0  0
  5 10  1  0  0  0  0
  6  5  1  0  0  0  0
  6 21  1  0  0  0  0
  7  1  1  0  0  0  0
  8  2  1  0  0  0  0
 11  3  1  0  0  0  0
 12 11  1  0  0  0  0
 13 17  1  0  0  0  0
 13 14  1  0  0  0  0
 14 19  1  0  0  0  0
 14 18  1  0  0  0  0
 15 13  2  0  0  0  0
 16 13  2  0  0  0  0
 20 14  1  0  0  0  0
 21 22  1  0  0  0  0
 22 23  1  0  0  0  0
 22 25  1  0  0  0  0
 24 22  1  0  0  0  0
M  RAD  3  11   2  12   3  17   2
M  END
