Coordinates from ORCA-job p-CH3O-Ph-N2-X-OTf-B3LYPG-6-31G_dp-scan-d09-49-n400
 OpenBabel08281821483D

 25 24  0  0  0  0  0  0  0  0999 V2000
   -2.0433   -0.8733   -5.2406 C   0  0  0  0  0  0  0  0  0  0  0  0
   -0.8976   -0.1204   -5.1151 C   0  0  0  0  0  0  0  0  0  0  0  0
   -1.0420    1.2837   -5.1203 C   0  0  0  0  0  0  0  0  0  0  0  0
   -2.2846    1.9290   -5.2591 C   0  0  0  0  0  0  0  0  0  0  0  0
   -3.4199    1.1518   -5.3945 C   0  0  0  0  0  0  0  0  0  0  0  0
   -3.3062   -0.2565   -5.3852 C   0  0  0  0  0  0  0  0  0  0  0  0
   -1.9949   -1.9565   -5.2488 H   0  0  0  0  0  0  0  0  0  0  0  0
    0.1046   -0.5459   -5.0370 H   0  0  0  0  0  0  0  0  0  0  0  0
   -2.3463    3.0119   -5.2676 H   0  0  0  0  0  0  0  0  0  0  0  0
   -4.3811    1.6352   -5.5098 H   0  0  0  0  0  0  0  0  0  0  0  0
    0.0627    2.0820   -4.9671 N   0  0  0  0  0  0  0  0  0  0  0  0
    0.8845    2.8068   -4.7605 N   0  0  0  0  0  0  0  0  0  0  0  0
    2.2399    0.0999   -6.6982 S   0  0  0  0  0  0  0  0  0  0  0  0
    3.7291    1.2020   -6.5619 C   0  0  0  0  0  0  0  0  0  0  0  0
    2.6094   -0.9154   -7.6902 O   0  0  0  0  0  0  0  0  0  0  0  0
    1.1620    1.0519   -7.1001 O   0  0  0  0  0  0  0  0  0  0  0  0
    2.0655   -0.3760   -5.2929 O   0  0  0  0  0  0  0  0  0  0  0  0
    3.4923    2.1928   -5.6687 F   0  0  0  0  0  0  0  0  0  0  0  0
    4.8033    0.5210   -6.1443 F   0  0  0  0  0  0  0  0  0  0  0  0
    4.0172    1.7737   -7.7390 F   0  0  0  0  0  0  0  0  0  0  0  0
   -4.3438   -1.0933   -5.5069 O   0  0  0  0  0  0  0  0  0  0  0  0
   -5.6640   -0.5706   -5.6821 C   0  0  0  0  0  0  0  0  0  0  0  0
   -6.3139   -1.4412   -5.7594 H   0  0  0  0  0  0  0  0  0  0  0  0
   -5.7335    0.0219   -6.6004 H   0  0  0  0  0  0  0  0  0  0  0  0
   -5.9651    0.0357   -4.8205 H   0  0  0  0  0  0  0  0  0  0  0  0
  1  2  2  0  0  0  0
  2  8  1  0  0  0  0
  3  2  1  0  0  0  0
  3 11  1  0  0  0  0
  4  3  2  0  0  0  0
  5  6  2  0  0  0  0
  5  4  1  0  0  0  0
  6  1  1  0  0  0  0
  7  1  1  0  0  0  0
  9  4  1  0  0  0  0
 10  5  1  0  0  0  0
 11 12  1  0  0  0  0
 13 14  1  0  0  0  0
 13 17  1  0  0  0  0
 14 19  1  0  0  0  0
 14 18  1  0  0  0  0
 15 13  2  0  0  0  0
 16 13  2  0  0  0  0
 20 14  1  0  0  0  0
 21  6  1  0  0  0  0
 22 21  1  0  0  0  0
 22 25  1  0  0  0  0
 23 22  1  0  0  0  0
 24 22  1  0  0  0  0
M  RAD  3  11   2  12   3  17   2
M  END
