Coordinates from ORCA-job p-CH3O-Ph-N2-X-OTf-B3LYPG-6-31G_dp-scan-d09-49-n400
 OpenBabel08281821483D

 25 24  0  0  0  0  0  0  0  0999 V2000
   -2.0522   -0.8885   -5.2234 C   0  0  0  0  0  0  0  0  0  0  0  0
   -0.9016   -0.1455   -5.0845 C   0  0  0  0  0  0  0  0  0  0  0  0
   -1.0320    1.2598   -5.0934 C   0  0  0  0  0  0  0  0  0  0  0  0
   -2.2667    1.9159   -5.2484 C   0  0  0  0  0  0  0  0  0  0  0  0
   -3.4076    1.1491   -5.3963 C   0  0  0  0  0  0  0  0  0  0  0  0
   -3.3074   -0.2601   -5.3842 C   0  0  0  0  0  0  0  0  0  0  0  0
   -2.0138   -1.9721   -5.2298 H   0  0  0  0  0  0  0  0  0  0  0  0
    0.0954   -0.5768   -4.9910 H   0  0  0  0  0  0  0  0  0  0  0  0
   -2.3182    2.9993   -5.2593 H   0  0  0  0  0  0  0  0  0  0  0  0
   -4.3628    1.6412   -5.5237 H   0  0  0  0  0  0  0  0  0  0  0  0
    0.0782    2.0480   -4.9291 N   0  0  0  0  0  0  0  0  0  0  0  0
    0.9068    2.7628   -4.7164 N   0  0  0  0  0  0  0  0  0  0  0  0
    2.2278    0.1148   -6.6611 S   0  0  0  0  0  0  0  0  0  0  0  0
    3.7217    1.2182   -6.6187 C   0  0  0  0  0  0  0  0  0  0  0  0
    2.5832   -0.9727   -7.5793 O   0  0  0  0  0  0  0  0  0  0  0  0
    1.1468    1.0376   -7.1163 O   0  0  0  0  0  0  0  0  0  0  0  0
    2.0676   -0.2585   -5.2223 O   0  0  0  0  0  0  0  0  0  0  0  0
    3.4905    2.2782   -5.8083 F   0  0  0  0  0  0  0  0  0  0  0  0
    4.7944    0.5687   -6.1497 F   0  0  0  0  0  0  0  0  0  0  0  0
    4.0088    1.6903   -7.8392 F   0  0  0  0  0  0  0  0  0  0  0  0
   -4.3512   -1.0875   -5.5177 O   0  0  0  0  0  0  0  0  0  0  0  0
   -5.6644   -0.5525   -5.7080 C   0  0  0  0  0  0  0  0  0  0  0  0
   -6.3217   -1.4169   -5.7915 H   0  0  0  0  0  0  0  0  0  0  0  0
   -5.7182    0.0395   -6.6277 H   0  0  0  0  0  0  0  0  0  0  0  0
   -5.9690    0.0578   -4.8505 H   0  0  0  0  0  0  0  0  0  0  0  0
  1  2  2  0  0  0  0
  2  8  1  0  0  0  0
  3  2  1  0  0  0  0
  3 11  1  0  0  0  0
  4  3  2  0  0  0  0
  5  6  2  0  0  0  0
  5  4  1  0  0  0  0
  6  1  1  0  0  0  0
  7  1  1  0  0  0  0
  9  4  1  0  0  0  0
 10  5  1  0  0  0  0
 11 12  1  0  0  0  0
 13 14  1  0  0  0  0
 13 17  1  0  0  0  0
 14 19  1  0  0  0  0
 14 18  1  0  0  0  0
 15 13  2  0  0  0  0
 16 13  2  0  0  0  0
 20 14  1  0  0  0  0
 21  6  1  0  0  0  0
 22 21  1  0  0  0  0
 22 25  1  0  0  0  0
 23 22  1  0  0  0  0
 24 22  1  0  0  0  0
M  RAD  3  11   2  12   3  17   2
M  END
