Coordinates from ORCA-job p-CH3O-Ph-N2-X-OTf-B3LYPG-6-31G_dp-scan-d09-49-n400
 OpenBabel08281821483D

 25 24  0  0  0  0  0  0  0  0999 V2000
   -2.0485   -0.8780   -5.2482 C   0  0  0  0  0  0  0  0  0  0  0  0
   -0.9010   -0.1280   -5.1208 C   0  0  0  0  0  0  0  0  0  0  0  0
   -1.0415    1.2765   -5.1199 C   0  0  0  0  0  0  0  0  0  0  0  0
   -2.2827    1.9252   -5.2547 C   0  0  0  0  0  0  0  0  0  0  0  0
   -3.4199    1.1512   -5.3920 C   0  0  0  0  0  0  0  0  0  0  0  0
   -3.3099   -0.2574   -5.3887 C   0  0  0  0  0  0  0  0  0  0  0  0
   -2.0026   -1.9613   -5.2611 H   0  0  0  0  0  0  0  0  0  0  0  0
    0.1000   -0.5552   -5.0423 H   0  0  0  0  0  0  0  0  0  0  0  0
   -2.3417    3.0082   -5.2586 H   0  0  0  0  0  0  0  0  0  0  0  0
   -4.3801    1.6374   -5.5042 H   0  0  0  0  0  0  0  0  0  0  0  0
    0.0657    2.0706   -4.9638 N   0  0  0  0  0  0  0  0  0  0  0  0
    0.8921    2.7897   -4.7562 N   0  0  0  0  0  0  0  0  0  0  0  0
    2.2432    0.1034   -6.6777 S   0  0  0  0  0  0  0  0  0  0  0  0
    3.7340    1.2074   -6.5787 C   0  0  0  0  0  0  0  0  0  0  0  0
    2.6106   -0.9468   -7.6337 O   0  0  0  0  0  0  0  0  0  0  0  0
    1.1656    1.0415   -7.1102 O   0  0  0  0  0  0  0  0  0  0  0  0
    2.0690   -0.3241   -5.2564 O   0  0  0  0  0  0  0  0  0  0  0  0
    3.4963    2.2308   -5.7236 F   0  0  0  0  0  0  0  0  0  0  0  0
    4.8058    0.5406   -6.1330 F   0  0  0  0  0  0  0  0  0  0  0  0
    4.0263    1.7340   -7.7755 F   0  0  0  0  0  0  0  0  0  0  0  0
   -4.3499   -1.0909   -5.5127 O   0  0  0  0  0  0  0  0  0  0  0  0
   -5.6692   -0.5640   -5.6820 C   0  0  0  0  0  0  0  0  0  0  0  0
   -6.3216   -1.4325   -5.7614 H   0  0  0  0  0  0  0  0  0  0  0  0
   -5.7396    0.0327   -6.5975 H   0  0  0  0  0  0  0  0  0  0  0  0
   -5.9663    0.0393   -4.8170 H   0  0  0  0  0  0  0  0  0  0  0  0
  1  2  2  0  0  0  0
  2  3  1  0  0  0  0
  2  8  1  0  0  0  0
  3 11  1  0  0  0  0
  4  3  2  0  0  0  0
  5  6  2  0  0  0  0
  5  4  1  0  0  0  0
  6  1  1  0  0  0  0
  7  1  1  0  0  0  0
  9  4  1  0  0  0  0
 10  5  1  0  0  0  0
 11 12  1  0  0  0  0
 13 14  1  0  0  0  0
 13 17  1  0  0  0  0
 14 19  1  0  0  0  0
 14 18  1  0  0  0  0
 15 13  2  0  0  0  0
 16 13  2  0  0  0  0
 20 14  1  0  0  0  0
 21  6  1  0  0  0  0
 22 21  1  0  0  0  0
 22 25  1  0  0  0  0
 23 22  1  0  0  0  0
 24 22  1  0  0  0  0
M  RAD  3  11   2  12   3  17   2
M  END
