Coordinates from ORCA-job p-CH3O-Ph-N2-X-OTf-B3LYPG-6-31G_dp-scan-d09-49-n400
 OpenBabel08281821483D

 25 24  0  0  0  0  0  0  0  0999 V2000
   -1.8824   -0.7239   -5.5550 C   0  0  0  0  0  0  0  0  0  0  0  0
   -0.8020    0.1261   -5.6559 C   0  0  0  0  0  0  0  0  0  0  0  0
   -1.0652    1.5121   -5.6042 C   0  0  0  0  0  0  0  0  0  0  0  0
   -2.3657    2.0396   -5.4590 C   0  0  0  0  0  0  0  0  0  0  0  0
   -3.4316    1.1665   -5.3697 C   0  0  0  0  0  0  0  0  0  0  0  0
   -3.1961   -0.2268   -5.4167 C   0  0  0  0  0  0  0  0  0  0  0  0
   -1.7355   -1.7974   -5.5967 H   0  0  0  0  0  0  0  0  0  0  0  0
    0.2077   -0.2658   -5.7937 H   0  0  0  0  0  0  0  0  0  0  0  0
   -2.5222    3.1126   -5.4265 H   0  0  0  0  0  0  0  0  0  0  0  0
   -4.4331    1.5630   -5.2655 H   0  0  0  0  0  0  0  0  0  0  0  0
   -0.0484    2.4336   -5.6647 N   0  0  0  0  0  0  0  0  0  0  0  0
    0.6573    3.2979   -5.6354 N   0  0  0  0  0  0  0  0  0  0  0  0
    2.4286    0.1615   -7.1485 S   0  0  0  0  0  0  0  0  0  0  0  0
    3.3989    0.8591   -5.7235 C   0  0  0  0  0  0  0  0  0  0  0  0
    3.4080   -0.0162   -8.2224 O   0  0  0  0  0  0  0  0  0  0  0  0
    1.4146    1.2429   -7.3580 O   0  0  0  0  0  0  0  0  0  0  0  0
    1.8357   -1.0712   -6.5630 O   0  0  0  0  0  0  0  0  0  0  0  0
    2.5463    1.1792   -4.7082 F   0  0  0  0  0  0  0  0  0  0  0  0
    4.2921   -0.0120   -5.2444 F   0  0  0  0  0  0  0  0  0  0  0  0
    4.0420    1.9839   -6.0692 F   0  0  0  0  0  0  0  0  0  0  0  0
   -4.1592   -1.1522   -5.3378 O   0  0  0  0  0  0  0  0  0  0  0  0
   -5.5263   -0.7496   -5.2118 C   0  0  0  0  0  0  0  0  0  0  0  0
   -6.1000   -1.6744   -5.1732 H   0  0  0  0  0  0  0  0  0  0  0  0
   -5.8434   -0.1578   -6.0774 H   0  0  0  0  0  0  0  0  0  0  0  0
   -5.6857   -0.1805   -4.2895 H   0  0  0  0  0  0  0  0  0  0  0  0
  1  6  2  0  0  0  0
  2  3  2  0  0  0  0
  2  1  1  0  0  0  0
  3  4  1  0  0  0  0
  4  9  1  0  0  0  0
  4  5  2  0  0  0  0
  5 10  1  0  0  0  0
  6  5  1  0  0  0  0
  6 21  1  0  0  0  0
  7  1  1  0  0  0  0
  8  2  1  0  0  0  0
 11 12  1  0  0  0  0
 11  3  1  0  0  0  0
 13 17  1  0  0  0  0
 13 14  1  0  0  0  0
 14 19  1  0  0  0  0
 14 18  1  0  0  0  0
 15 13  2  0  0  0  0
 16 13  2  0  0  0  0
 20 14  1  0  0  0  0
 21 22  1  0  0  0  0
 22 23  1  0  0  0  0
 22 25  1  0  0  0  0
 24 22  1  0  0  0  0
M  RAD  3  11   2  12   3  17   2
M  END
