Coordinates from ORCA-job p-CH3O-Ph-N2-X-OTf-B3LYPG-6-31G_dp-scan-d09-49-n400
 OpenBabel08281821483D

 25 24  0  0  0  0  0  0  0  0999 V2000
   -2.0793   -0.8977   -5.2370 C   0  0  0  0  0  0  0  0  0  0  0  0
   -0.9348   -0.1669   -5.0143 C   0  0  0  0  0  0  0  0  0  0  0  0
   -1.0593    1.2398   -4.9506 C   0  0  0  0  0  0  0  0  0  0  0  0
   -2.2832    1.9067   -5.1129 C   0  0  0  0  0  0  0  0  0  0  0  0
   -3.4207    1.1548   -5.3480 C   0  0  0  0  0  0  0  0  0  0  0  0
   -3.3250   -0.2528   -5.4113 C   0  0  0  0  0  0  0  0  0  0  0  0
   -2.0439   -1.9793   -5.3026 H   0  0  0  0  0  0  0  0  0  0  0  0
    0.0474   -0.6133   -4.8938 H   0  0  0  0  0  0  0  0  0  0  0  0
   -2.3303    2.9891   -5.0630 H   0  0  0  0  0  0  0  0  0  0  0  0
   -4.3696    1.6567   -5.4839 H   0  0  0  0  0  0  0  0  0  0  0  0
    0.0735    1.9717   -4.7188 N   0  0  0  0  0  0  0  0  0  0  0  0
    1.0802    2.4178   -4.5268 N   0  0  0  0  0  0  0  0  0  0  0  0
    2.2705    0.1433   -6.5067 S   0  0  0  0  0  0  0  0  0  0  0  0
    3.7030    1.2767   -6.8428 C   0  0  0  0  0  0  0  0  0  0  0  0
    2.6384   -1.1362   -7.1248 O   0  0  0  0  0  0  0  0  0  0  0  0
    1.1119    0.8646   -7.0957 O   0  0  0  0  0  0  0  0  0  0  0  0
    2.2125    0.1333   -5.0054 O   0  0  0  0  0  0  0  0  0  0  0  0
    3.4608    2.4985   -6.3212 F   0  0  0  0  0  0  0  0  0  0  0  0
    4.8297    0.8060   -6.2932 F   0  0  0  0  0  0  0  0  0  0  0  0
    3.8996    1.4213   -8.1604 F   0  0  0  0  0  0  0  0  0  0  0  0
   -4.3649   -1.0674   -5.6302 O   0  0  0  0  0  0  0  0  0  0  0  0
   -5.6683   -0.5166   -5.8404 C   0  0  0  0  0  0  0  0  0  0  0  0
   -6.3248   -1.3721   -5.9933 H   0  0  0  0  0  0  0  0  0  0  0  0
   -5.6862    0.1229   -6.7292 H   0  0  0  0  0  0  0  0  0  0  0  0
   -6.0030    0.0493   -4.9639 H   0  0  0  0  0  0  0  0  0  0  0  0
  1  2  2  0  0  0  0
  2  3  1  0  0  0  0
  2  8  1  0  0  0  0
  3 11  1  0  0  0  0
  4  9  1  0  0  0  0
  4  3  2  0  0  0  0
  5  4  1  0  0  0  0
  6  5  2  0  0  0  0
  6  1  1  0  0  0  0
  7  1  1  0  0  0  0
 10  5  1  0  0  0  0
 11 12  1  0  0  0  0
 13 17  1  0  0  0  0
 14 13  1  0  0  0  0
 14 18  1  0  0  0  0
 14 19  1  0  0  0  0
 15 13  2  0  0  0  0
 16 13  2  0  0  0  0
 20 14  1  0  0  0  0
 21  6  1  0  0  0  0
 22 21  1  0  0  0  0
 22 25  1  0  0  0  0
 23 22  1  0  0  0  0
 24 22  1  0  0  0  0
M  RAD  3  11   2  12   3  17   2
M  END
