Coordinates from ORCA-job p-CH3O-Ph-N2-X-OTf-B3LYPG-6-31G_dp-scan-d09-49-n400
 OpenBabel08281821483D

 25 24  0  0  0  0  0  0  0  0999 V2000
   -1.9968   -0.8118   -5.3261 C   0  0  0  0  0  0  0  0  0  0  0  0
   -0.8765   -0.0142   -5.2515 C   0  0  0  0  0  0  0  0  0  0  0  0
   -1.0809    1.3829   -5.2351 C   0  0  0  0  0  0  0  0  0  0  0  0
   -2.3560    1.9775   -5.2994 C   0  0  0  0  0  0  0  0  0  0  0  0
   -3.4630    1.1553   -5.3844 C   0  0  0  0  0  0  0  0  0  0  0  0
   -3.2898   -0.2479   -5.3984 C   0  0  0  0  0  0  0  0  0  0  0  0
   -1.9028   -1.8919   -5.3492 H   0  0  0  0  0  0  0  0  0  0  0  0
    0.1418   -0.4168   -5.2320 H   0  0  0  0  0  0  0  0  0  0  0  0
   -2.4626    3.0570   -5.2913 H   0  0  0  0  0  0  0  0  0  0  0  0
   -4.4484    1.5986   -5.4430 H   0  0  0  0  0  0  0  0  0  0  0  0
   -0.0046    2.2257   -5.1350 N   0  0  0  0  0  0  0  0  0  0  0  0
    0.8022    2.9808   -4.9823 N   0  0  0  0  0  0  0  0  0  0  0  0
    2.2876    0.0796   -6.8464 S   0  0  0  0  0  0  0  0  0  0  0  0
    3.7275    1.1220   -6.3052 C   0  0  0  0  0  0  0  0  0  0  0  0
    2.7773   -0.6566   -8.0155 O   0  0  0  0  0  0  0  0  0  0  0  0
    1.2332    1.1047   -7.1105 O   0  0  0  0  0  0  0  0  0  0  0  0
    1.9956   -0.7267   -5.6258 O   0  0  0  0  0  0  0  0  0  0  0  0
    3.3682    1.8979   -5.2500 F   0  0  0  0  0  0  0  0  0  0  0  0
    4.7633    0.3667   -5.9219 F   0  0  0  0  0  0  0  0  0  0  0  0
    4.1335    1.9383   -7.2874 F   0  0  0  0  0  0  0  0  0  0  0  0
   -4.2966   -1.1255   -5.4777 O   0  0  0  0  0  0  0  0  0  0  0  0
   -5.6448   -0.6578   -5.5805 C   0  0  0  0  0  0  0  0  0  0  0  0
   -6.2601   -1.5543   -5.6426 H   0  0  0  0  0  0  0  0  0  0  0  0
   -5.7833   -0.0542   -6.4837 H   0  0  0  0  0  0  0  0  0  0  0  0
   -5.9296   -0.0790   -4.6950 H   0  0  0  0  0  0  0  0  0  0  0  0
  1  2  2  0  0  0  0
  2  3  1  0  0  0  0
  2  8  1  0  0  0  0
  3 11  1  0  0  0  0
  4  9  1  0  0  0  0
  4  3  2  0  0  0  0
  5  4  1  0  0  0  0
  6  5  2  0  0  0  0
  6  1  1  0  0  0  0
  7  1  1  0  0  0  0
 10  5  1  0  0  0  0
 11 12  1  0  0  0  0
 13 14  1  0  0  0  0
 13 17  1  0  0  0  0
 14 19  1  0  0  0  0
 14 18  1  0  0  0  0
 15 13  2  0  0  0  0
 16 13  2  0  0  0  0
 20 14  1  0  0  0  0
 21  6  1  0  0  0  0
 22 21  1  0  0  0  0
 22 25  1  0  0  0  0
 23 22  1  0  0  0  0
 24 22  1  0  0  0  0
M  RAD  3  11   2  12   3  17   2
M  END
