Coordinates from ORCA-job p-CH3O-Ph-N2-X-OTf-B3LYPG-6-31G_dp-scan-d09-49-n400
 OpenBabel08281821483D

 25 25  0  0  0  0  0  0  0  0999 V2000
   -2.1272   -1.1900   -5.2915 C   0  0  0  0  0  0  0  0  0  0  0  0
   -0.8518   -0.6520   -5.3200 C   0  0  0  0  0  0  0  0  0  0  0  0
   -0.6906    0.7320   -5.4667 C   0  0  0  0  0  0  0  0  0  0  0  0
   -1.8013    1.5675   -5.5918 C   0  0  0  0  0  0  0  0  0  0  0  0
   -3.0862    1.0304   -5.5499 C   0  0  0  0  0  0  0  0  0  0  0  0
   -3.2535   -0.3546   -5.4033 C   0  0  0  0  0  0  0  0  0  0  0  0
   -2.2843   -2.2570   -5.1771 H   0  0  0  0  0  0  0  0  0  0  0  0
    0.0182   -1.2916   -5.2297 H   0  0  0  0  0  0  0  0  0  0  0  0
   -1.6574    2.6362   -5.7125 H   0  0  0  0  0  0  0  0  0  0  0  0
   -3.9389    1.6911   -5.6405 H   0  0  0  0  0  0  0  0  0  0  0  0
    0.6233    1.3072   -5.4786 N   0  0  0  0  0  0  0  0  0  0  0  0
    0.9189    2.2421   -4.6202 N   0  0  0  0  0  0  0  0  0  0  0  0
    1.6816    1.0804   -6.9676 S   0  0  0  0  0  0  0  0  0  0  0  0
    3.4093    0.6913   -6.2694 C   0  0  0  0  0  0  0  0  0  0  0  0
    1.1923   -0.1799   -7.5148 O   0  0  0  0  0  0  0  0  0  0  0  0
    1.7188    2.3021   -7.7562 O   0  0  0  0  0  0  0  0  0  0  0  0
    2.1404    2.8232   -4.8994 O   0  0  0  0  0  0  0  0  0  0  0  0
    3.2924    0.2365   -5.0266 F   0  0  0  0  0  0  0  0  0  0  0  0
    3.9021   -0.2695   -7.0510 F   0  0  0  0  0  0  0  0  0  0  0  0
    4.1886    1.7507   -6.3240 F   0  0  0  0  0  0  0  0  0  0  0  0
   -4.4534   -0.9836   -5.3590 O   0  0  0  0  0  0  0  0  0  0  0  0
   -5.6384   -0.2027   -5.4616 C   0  0  0  0  0  0  0  0  0  0  0  0
   -6.4666   -0.9092   -5.4049 H   0  0  0  0  0  0  0  0  0  0  0  0
   -5.6842    0.3333   -6.4173 H   0  0  0  0  0  0  0  0  0  0  0  0
   -5.7180    0.5161   -4.6367 H   0  0  0  0  0  0  0  0  0  0  0  0
  1  7  1  0  0  0  0
  2  1  1  0  0  0  0
  2  8  1  0  0  0  0
  3  2  2  0  0  0  0
  4  5  2  0  0  0  0
  4  3  1  0  0  0  0
  5  6  1  0  0  0  0
  6 21  1  0  0  0  0
  6  1  2  0  0  0  0
  9  4  1  0  0  0  0
 10  5  1  0  0  0  0
 11  3  1  0  0  0  0
 11 12  1  0  0  0  0
 13 14  1  0  0  0  0
 13 11  1  0  0  0  0
 14 18  1  0  0  0  0
 15 13  2  0  0  0  0
 16 13  2  0  0  0  0
 17 12  1  0  0  0  0
 19 14  1  0  0  0  0
 20 14  1  0  0  0  0
 22 23  1  0  0  0  0
 22 21  1  0  0  0  0
 22 25  1  0  0  0  0
 24 22  1  0  0  0  0
M  RAD  2  12   2  17   2
M  END
