Coordinates from ORCA-job p-CH3O-Ph-N2-X-OTf-B3LYPG-6-31G_dp-scan-d09-49-n400
 OpenBabel08281821483D

 25 24  0  0  0  0  0  0  0  0999 V2000
   -2.0839   -0.8961   -5.2457 C   0  0  0  0  0  0  0  0  0  0  0  0
   -0.9402   -0.1647   -5.0208 C   0  0  0  0  0  0  0  0  0  0  0  0
   -1.0664    1.2414   -4.9487 C   0  0  0  0  0  0  0  0  0  0  0  0
   -2.2915    1.9069   -5.1048 C   0  0  0  0  0  0  0  0  0  0  0  0
   -3.4285    1.1547   -5.3422 C   0  0  0  0  0  0  0  0  0  0  0  0
   -3.3309   -0.2522   -5.4140 C   0  0  0  0  0  0  0  0  0  0  0  0
   -2.0470   -1.9773   -5.3173 H   0  0  0  0  0  0  0  0  0  0  0  0
    0.0418   -0.6116   -4.9031 H   0  0  0  0  0  0  0  0  0  0  0  0
   -2.3401    2.9888   -5.0482 H   0  0  0  0  0  0  0  0  0  0  0  0
   -4.3784    1.6559   -5.4733 H   0  0  0  0  0  0  0  0  0  0  0  0
    0.0673    1.9727   -4.7158 N   0  0  0  0  0  0  0  0  0  0  0  0
    1.0860    2.3948   -4.5271 N   0  0  0  0  0  0  0  0  0  0  0  0
    2.2829    0.1480   -6.5001 S   0  0  0  0  0  0  0  0  0  0  0  0
    3.7151    1.2774   -6.8503 C   0  0  0  0  0  0  0  0  0  0  0  0
    2.6525   -1.1411   -7.0968 O   0  0  0  0  0  0  0  0  0  0  0  0
    1.1242    0.8592   -7.0992 O   0  0  0  0  0  0  0  0  0  0  0  0
    2.2241    0.1571   -4.9976 O   0  0  0  0  0  0  0  0  0  0  0  0
    3.4724    2.5055   -6.3450 F   0  0  0  0  0  0  0  0  0  0  0  0
    4.8415    0.8135   -6.2945 F   0  0  0  0  0  0  0  0  0  0  0  0
    3.9116    1.4040   -8.1698 F   0  0  0  0  0  0  0  0  0  0  0  0
   -4.3700   -1.0674   -5.6357 O   0  0  0  0  0  0  0  0  0  0  0  0
   -5.6746   -0.5172   -5.8398 C   0  0  0  0  0  0  0  0  0  0  0  0
   -6.3302   -1.3727   -5.9964 H   0  0  0  0  0  0  0  0  0  0  0  0
   -5.6954    0.1276   -6.7247 H   0  0  0  0  0  0  0  0  0  0  0  0
   -6.0082    0.0429   -4.9592 H   0  0  0  0  0  0  0  0  0  0  0  0
  1  2  2  0  0  0  0
  2  3  1  0  0  0  0
  2  8  1  0  0  0  0
  3 11  1  0  0  0  0
  4  9  1  0  0  0  0
  4  3  2  0  0  0  0
  5  4  1  0  0  0  0
  6  5  2  0  0  0  0
  6  1  1  0  0  0  0
  7  1  1  0  0  0  0
 10  5  1  0  0  0  0
 11 12  1  0  0  0  0
 13 17  1  0  0  0  0
 14 13  1  0  0  0  0
 14 18  1  0  0  0  0
 14 19  1  0  0  0  0
 15 13  2  0  0  0  0
 16 13  2  0  0  0  0
 20 14  1  0  0  0  0
 21  6  1  0  0  0  0
 22 21  1  0  0  0  0
 22 25  1  0  0  0  0
 23 22  1  0  0  0  0
 24 22  1  0  0  0  0
M  RAD  3  11   2  12   3  17   2
M  END
