Coordinates from ORCA-job p-CH3O-Ph-N2-X-OTf-B3LYPG-6-31G_dp-scan-d09-49-n400
 OpenBabel08281821483D

 25 24  0  0  0  0  0  0  0  0999 V2000
   -1.9654   -0.7817   -5.4300 C   0  0  0  0  0  0  0  0  0  0  0  0
   -0.8585    0.0385   -5.4107 C   0  0  0  0  0  0  0  0  0  0  0  0
   -1.0905    1.4307   -5.3629 C   0  0  0  0  0  0  0  0  0  0  0  0
   -2.3813    1.9963   -5.3412 C   0  0  0  0  0  0  0  0  0  0  0  0
   -3.4740    1.1520   -5.3723 C   0  0  0  0  0  0  0  0  0  0  0  0
   -3.2722   -0.2468   -5.4172 C   0  0  0  0  0  0  0  0  0  0  0  0
   -1.8482   -1.8589   -5.4736 H   0  0  0  0  0  0  0  0  0  0  0  0
    0.1606   -0.3599   -5.4552 H   0  0  0  0  0  0  0  0  0  0  0  0
   -2.5102    3.0729   -5.3091 H   0  0  0  0  0  0  0  0  0  0  0  0
   -4.4701    1.5747   -5.3644 H   0  0  0  0  0  0  0  0  0  0  0  0
   -0.0362    2.3066   -5.3103 N   0  0  0  0  0  0  0  0  0  0  0  0
    0.7348    3.1044   -5.1921 N   0  0  0  0  0  0  0  0  0  0  0  0
    2.3447    0.0988   -6.9550 S   0  0  0  0  0  0  0  0  0  0  0  0
    3.6741    1.0574   -6.0782 C   0  0  0  0  0  0  0  0  0  0  0  0
    2.9893   -0.4125   -8.1674 O   0  0  0  0  0  0  0  0  0  0  0  0
    1.2982    1.1468   -7.1627 O   0  0  0  0  0  0  0  0  0  0  0  0
    1.9402   -0.9113   -5.9369 O   0  0  0  0  0  0  0  0  0  0  0  0
    3.1541    1.6652   -4.9783 F   0  0  0  0  0  0  0  0  0  0  0  0
    4.6714    0.2645   -5.6717 F   0  0  0  0  0  0  0  0  0  0  0  0
    4.1827    2.0159   -6.8648 F   0  0  0  0  0  0  0  0  0  0  0  0
   -4.2632   -1.1451   -5.4501 O   0  0  0  0  0  0  0  0  0  0  0  0
   -5.6246   -0.7057   -5.4634 C   0  0  0  0  0  0  0  0  0  0  0  0
   -6.2235   -1.6144   -5.5037 H   0  0  0  0  0  0  0  0  0  0  0  0
   -5.8305   -0.0910   -6.3462 H   0  0  0  0  0  0  0  0  0  0  0  0
   -5.8674   -0.1474   -4.5526 H   0  0  0  0  0  0  0  0  0  0  0  0
  1  6  2  0  0  0  0
  1  2  1  0  0  0  0
  2  3  2  0  0  0  0
  3  4  1  0  0  0  0
  3 11  1  0  0  0  0
  4  9  1  0  0  0  0
  5 10  1  0  0  0  0
  5  4  2  0  0  0  0
  6  5  1  0  0  0  0
  7  1  1  0  0  0  0
  8  2  1  0  0  0  0
 11 12  1  0  0  0  0
 13 14  1  0  0  0  0
 13 17  1  0  0  0  0
 14 19  1  0  0  0  0
 14 18  1  0  0  0  0
 15 13  2  0  0  0  0
 16 13  2  0  0  0  0
 20 14  1  0  0  0  0
 21  6  1  0  0  0  0
 22 21  1  0  0  0  0
 22 25  1  0  0  0  0
 23 22  1  0  0  0  0
 24 22  1  0  0  0  0
M  RAD  3  11   2  12   3  17   2
M  END
