Coordinates from ORCA-job p-CH3O-Ph-N2-X-OTf-B3LYPG-6-31G_dp-scan-d09-49-n400
 OpenBabel08281821483D

 25 24  0  0  0  0  0  0  0  0999 V2000
   -2.0033   -0.8181   -5.3235 C   0  0  0  0  0  0  0  0  0  0  0  0
   -0.8799   -0.0251   -5.2460 C   0  0  0  0  0  0  0  0  0  0  0  0
   -1.0783    1.3728   -5.2290 C   0  0  0  0  0  0  0  0  0  0  0  0
   -2.3507    1.9726   -5.2959 C   0  0  0  0  0  0  0  0  0  0  0  0
   -3.4611    1.1550   -5.3841 C   0  0  0  0  0  0  0  0  0  0  0  0
   -3.2938   -0.2487   -5.3984 C   0  0  0  0  0  0  0  0  0  0  0  0
   -1.9140   -1.8985   -5.3468 H   0  0  0  0  0  0  0  0  0  0  0  0
    0.1369   -0.4309   -5.2242 H   0  0  0  0  0  0  0  0  0  0  0  0
   -2.4529    3.0525   -5.2872 H   0  0  0  0  0  0  0  0  0  0  0  0
   -4.4444    1.6026   -5.4448 H   0  0  0  0  0  0  0  0  0  0  0  0
    0.0007    2.2118   -5.1243 N   0  0  0  0  0  0  0  0  0  0  0  0
    0.8067    2.9663   -4.9649 N   0  0  0  0  0  0  0  0  0  0  0  0
    2.2877    0.0783   -6.8297 S   0  0  0  0  0  0  0  0  0  0  0  0
    3.7331    1.1322   -6.3272 C   0  0  0  0  0  0  0  0  0  0  0  0
    2.7650   -0.6850   -7.9867 O   0  0  0  0  0  0  0  0  0  0  0  0
    1.2300    1.0968   -7.1065 O   0  0  0  0  0  0  0  0  0  0  0  0
    2.0080   -0.6995   -5.5878 O   0  0  0  0  0  0  0  0  0  0  0  0
    3.3865    1.9274   -5.2825 F   0  0  0  0  0  0  0  0  0  0  0  0
    4.7745    0.3850   -5.9433 F   0  0  0  0  0  0  0  0  0  0  0  0
    4.1254    1.9300   -7.3299 F   0  0  0  0  0  0  0  0  0  0  0  0
   -4.3041   -1.1222   -5.4805 O   0  0  0  0  0  0  0  0  0  0  0  0
   -5.6501   -0.6488   -5.5862 C   0  0  0  0  0  0  0  0  0  0  0  0
   -6.2690   -1.5427   -5.6497 H   0  0  0  0  0  0  0  0  0  0  0  0
   -5.7840   -0.0445   -6.4896 H   0  0  0  0  0  0  0  0  0  0  0  0
   -5.9343   -0.0689   -4.7012 H   0  0  0  0  0  0  0  0  0  0  0  0
  1  2  2  0  0  0  0
  2  3  1  0  0  0  0
  2  8  1  0  0  0  0
  3 11  1  0  0  0  0
  4  9  1  0  0  0  0
  4  3  2  0  0  0  0
  5  4  1  0  0  0  0
  6  5  2  0  0  0  0
  6  1  1  0  0  0  0
  7  1  1  0  0  0  0
 10  5  1  0  0  0  0
 11 12  1  0  0  0  0
 13 14  1  0  0  0  0
 13 17  1  0  0  0  0
 14 19  1  0  0  0  0
 14 18  1  0  0  0  0
 15 13  2  0  0  0  0
 16 13  2  0  0  0  0
 20 14  1  0  0  0  0
 21  6  1  0  0  0  0
 22 21  1  0  0  0  0
 22 25  1  0  0  0  0
 23 22  1  0  0  0  0
 24 22  1  0  0  0  0
M  RAD  3  11   2  12   3  17   2
M  END
