Coordinates from ORCA-job p-CH3O-Ph-N2-X-OTf-B3LYPG-6-31G_dp-scan-d09-49-n400
 OpenBabel08281821483D

 25 24  0  0  0  0  0  0  0  0999 V2000
   -2.0655   -0.9134   -5.2104 C   0  0  0  0  0  0  0  0  0  0  0  0
   -0.9102   -0.1858   -5.0368 C   0  0  0  0  0  0  0  0  0  0  0  0
   -1.0222    1.2218   -5.0296 C   0  0  0  0  0  0  0  0  0  0  0  0
   -2.2444    1.8939   -5.2037 C   0  0  0  0  0  0  0  0  0  0  0  0
   -3.3913    1.1433   -5.3871 C   0  0  0  0  0  0  0  0  0  0  0  0
   -3.3089   -0.2667   -5.3911 C   0  0  0  0  0  0  0  0  0  0  0  0
   -2.0400   -1.9971   -5.2311 H   0  0  0  0  0  0  0  0  0  0  0  0
    0.0767   -0.6291   -4.9234 H   0  0  0  0  0  0  0  0  0  0  0  0
   -2.2821    2.9779   -5.2019 H   0  0  0  0  0  0  0  0  0  0  0  0
   -4.3373    1.6488   -5.5297 H   0  0  0  0  0  0  0  0  0  0  0  0
    0.0988    1.9848   -4.8337 N   0  0  0  0  0  0  0  0  0  0  0  0
    0.9724    2.6387   -4.6090 N   0  0  0  0  0  0  0  0  0  0  0  0
    2.2129    0.1517   -6.5885 S   0  0  0  0  0  0  0  0  0  0  0  0
    3.7023    1.2528   -6.7253 C   0  0  0  0  0  0  0  0  0  0  0  0
    2.5514   -1.0507   -7.3589 O   0  0  0  0  0  0  0  0  0  0  0  0
    1.1145    1.0010   -7.1299 O   0  0  0  0  0  0  0  0  0  0  0  0
    2.0878   -0.0300   -5.1075 O   0  0  0  0  0  0  0  0  0  0  0  0
    3.4849    2.4078   -6.0555 F   0  0  0  0  0  0  0  0  0  0  0  0
    4.7881    0.6699   -6.2016 F   0  0  0  0  0  0  0  0  0  0  0  0
    3.9584    1.5610   -8.0040 F   0  0  0  0  0  0  0  0  0  0  0  0
   -4.3593   -1.0796   -5.5585 O   0  0  0  0  0  0  0  0  0  0  0  0
   -5.6611   -0.5257   -5.7721 C   0  0  0  0  0  0  0  0  0  0  0  0
   -6.3272   -1.3807   -5.8794 H   0  0  0  0  0  0  0  0  0  0  0  0
   -5.6870    0.0763   -6.6865 H   0  0  0  0  0  0  0  0  0  0  0  0
   -5.9772    0.0794   -4.9150 H   0  0  0  0  0  0  0  0  0  0  0  0
  1  2  2  0  0  0  0
  2  3  1  0  0  0  0
  2  8  1  0  0  0  0
  3 11  1  0  0  0  0
  4  9  1  0  0  0  0
  4  3  2  0  0  0  0
  5  4  1  0  0  0  0
  6  5  2  0  0  0  0
  6  1  1  0  0  0  0
  7  1  1  0  0  0  0
 10  5  1  0  0  0  0
 11 12  1  0  0  0  0
 13 17  1  0  0  0  0
 14 13  1  0  0  0  0
 14 19  1  0  0  0  0
 14 18  1  0  0  0  0
 15 13  2  0  0  0  0
 16 13  2  0  0  0  0
 20 14  1  0  0  0  0
 21  6  1  0  0  0  0
 22 21  1  0  0  0  0
 22 25  1  0  0  0  0
 23 22  1  0  0  0  0
 24 22  1  0  0  0  0
M  RAD  3  11   2  12   3  17   2
M  END
