Coordinates from ORCA-job p-CH3O-Ph-N2-X-OTf-B3LYPG-6-31G_dp-scan-d09-49-n400
 OpenBabel08281821483D

 25 24  0  0  0  0  0  0  0  0999 V2000
   -2.0163   -0.8369   -5.2841 C   0  0  0  0  0  0  0  0  0  0  0  0
   -0.8853   -0.0578   -5.1841 C   0  0  0  0  0  0  0  0  0  0  0  0
   -1.0651    1.3425   -5.1774 C   0  0  0  0  0  0  0  0  0  0  0  0
   -2.3269    1.9586   -5.2773 C   0  0  0  0  0  0  0  0  0  0  0  0
   -3.4458    1.1550   -5.3876 C   0  0  0  0  0  0  0  0  0  0  0  0
   -3.2971   -0.2506   -5.3916 C   0  0  0  0  0  0  0  0  0  0  0  0
   -1.9413   -1.9186   -5.3008 H   0  0  0  0  0  0  0  0  0  0  0  0
    0.1271   -0.4697   -5.1367 H   0  0  0  0  0  0  0  0  0  0  0  0
   -2.4149    3.0398   -5.2764 H   0  0  0  0  0  0  0  0  0  0  0  0
   -4.4214    1.6152   -5.4735 H   0  0  0  0  0  0  0  0  0  0  0  0
    0.0236    2.1664   -5.0528 N   0  0  0  0  0  0  0  0  0  0  0  0
    0.8350    2.9106   -4.8733 N   0  0  0  0  0  0  0  0  0  0  0  0
    2.2640    0.0792   -6.7810 S   0  0  0  0  0  0  0  0  0  0  0  0
    3.7330    1.1591   -6.4243 C   0  0  0  0  0  0  0  0  0  0  0  0
    2.6868   -0.7751   -7.8954 O   0  0  0  0  0  0  0  0  0  0  0  0
    1.1963    1.0780   -7.0885 O   0  0  0  0  0  0  0  0  0  0  0  0
    2.0372   -0.5985   -5.4709 O   0  0  0  0  0  0  0  0  0  0  0  0
    3.4418    2.0208   -5.4180 F   0  0  0  0  0  0  0  0  0  0  0  0
    4.7934    0.4343   -6.0484 F   0  0  0  0  0  0  0  0  0  0  0  0
    4.0715    1.8873   -7.4973 F   0  0  0  0  0  0  0  0  0  0  0  0
   -4.3168   -1.1113   -5.4931 O   0  0  0  0  0  0  0  0  0  0  0  0
   -5.6534   -0.6205   -5.6326 C   0  0  0  0  0  0  0  0  0  0  0  0
   -6.2828   -1.5063   -5.7043 H   0  0  0  0  0  0  0  0  0  0  0  0
   -5.7586   -0.0207   -6.5427 H   0  0  0  0  0  0  0  0  0  0  0  0
   -5.9496   -0.0306   -4.7581 H   0  0  0  0  0  0  0  0  0  0  0  0
  1  2  2  0  0  0  0
  2  3  1  0  0  0  0
  2  8  1  0  0  0  0
  3 11  1  0  0  0  0
  4  9  1  0  0  0  0
  4  3  2  0  0  0  0
  5  4  1  0  0  0  0
  6  5  2  0  0  0  0
  6  1  1  0  0  0  0
  7  1  1  0  0  0  0
 10  5  1  0  0  0  0
 11 12  1  0  0  0  0
 13 14  1  0  0  0  0
 13 17  1  0  0  0  0
 14 19  1  0  0  0  0
 14 18  1  0  0  0  0
 15 13  2  0  0  0  0
 16 13  2  0  0  0  0
 20 14  1  0  0  0  0
 21  6  1  0  0  0  0
 22 21  1  0  0  0  0
 22 25  1  0  0  0  0
 23 22  1  0  0  0  0
 24 22  1  0  0  0  0
M  RAD  3  11   2  12   3  17   2
M  END
