Coordinates from ORCA-job p-CH3O-Ph-N2-X-OTf-B3LYPG-6-31G_dp-scan-d09-49-n400
 OpenBabel08281821483D

 25 24  0  0  0  0  0  0  0  0999 V2000
   -2.1630   -0.8779   -5.4152 C   0  0  0  0  0  0  0  0  0  0  0  0
   -1.0231   -0.1187   -5.2568 C   0  0  0  0  0  0  0  0  0  0  0  0
   -1.1689    1.2769   -5.0964 C   0  0  0  0  0  0  0  0  0  0  0  0
   -2.4273    1.8933   -5.0931 C   0  0  0  0  0  0  0  0  0  0  0  0
   -3.5662    1.1208   -5.2600 C   0  0  0  0  0  0  0  0  0  0  0  0
   -3.4387   -0.2727   -5.4222 C   0  0  0  0  0  0  0  0  0  0  0  0
   -2.1014   -1.9526   -5.5455 H   0  0  0  0  0  0  0  0  0  0  0  0
   -0.0327   -0.5572   -5.2477 H   0  0  0  0  0  0  0  0  0  0  0  0
   -2.4992    2.9680   -4.9658 H   0  0  0  0  0  0  0  0  0  0  0  0
   -4.5376    1.5981   -5.2646 H   0  0  0  0  0  0  0  0  0  0  0  0
   -0.0564    2.0848   -4.9327 N   0  0  0  0  0  0  0  0  0  0  0  0
    1.0751    2.2492   -4.9008 N   0  0  0  0  0  0  0  0  0  0  0  0
    2.4080    0.3530   -6.6626 S   0  0  0  0  0  0  0  0  0  0  0  0
    4.0617    1.1986   -6.6704 C   0  0  0  0  0  0  0  0  0  0  0  0
    2.6702   -1.0468   -7.0021 O   0  0  0  0  0  0  0  0  0  0  0  0
    1.5523    1.1579   -7.5467 O   0  0  0  0  0  0  0  0  0  0  0  0
    1.9930    0.5039   -5.1878 O   0  0  0  0  0  0  0  0  0  0  0  0
    3.9284    2.4686   -6.2581 F   0  0  0  0  0  0  0  0  0  0  0  0
    4.9143    0.5699   -5.8549 F   0  0  0  0  0  0  0  0  0  0  0  0
    4.5684    1.2003   -7.9085 F   0  0  0  0  0  0  0  0  0  0  0  0
   -4.4731   -1.1143   -5.5875 O   0  0  0  0  0  0  0  0  0  0  0  0
   -5.8035   -0.5956   -5.6153 C   0  0  0  0  0  0  0  0  0  0  0  0
   -6.4522   -1.4594   -5.7568 H   0  0  0  0  0  0  0  0  0  0  0  0
   -5.9382    0.1034   -6.4481 H   0  0  0  0  0  0  0  0  0  0  0  0
   -6.0558   -0.1012   -4.6704 H   0  0  0  0  0  0  0  0  0  0  0  0
  1  2  1  0  0  0  0
  2  8  1  0  0  0  0
  2  3  2  0  0  0  0
  3  4  1  0  0  0  0
  3 11  1  0  0  0  0
  4  9  1  0  0  0  0
  5  4  2  0  0  0  0
  6  1  2  0  0  0  0
  6  5  1  0  0  0  0
  7  1  1  0  0  0  0
 10  5  1  0  0  0  0
 11 12  2  0  0  0  0
 13 17  1  0  0  0  0
 14 13  1  0  0  0  0
 14 18  1  0  0  0  0
 14 19  1  0  0  0  0
 15 13  2  0  0  0  0
 16 13  2  0  0  0  0
 20 14  1  0  0  0  0
 21  6  1  0  0  0  0
 22 21  1  0  0  0  0
 22 25  1  0  0  0  0
 23 22  1  0  0  0  0
 24 22  1  0  0  0  0
M  RAD  2  12   2  17   2
M  END
