Coordinates from ORCA-job p-CH3O-Ph-N2-X-OTf-B3LYPG-6-31G_dp-scan-d09-49-n400
 OpenBabel08281821483D

 25 24  0  0  0  0  0  0  0  0999 V2000
   -2.1363   -0.8837   -5.3746 C   0  0  0  0  0  0  0  0  0  0  0  0
   -0.9943   -0.1385   -5.1761 C   0  0  0  0  0  0  0  0  0  0  0  0
   -1.1321    1.2588   -5.0226 C   0  0  0  0  0  0  0  0  0  0  0  0
   -2.3803    1.8938   -5.0661 C   0  0  0  0  0  0  0  0  0  0  0  0
   -3.5202    1.1340   -5.2755 C   0  0  0  0  0  0  0  0  0  0  0  0
   -3.4031   -0.2618   -5.4314 C   0  0  0  0  0  0  0  0  0  0  0  0
   -2.0833   -1.9592   -5.5019 H   0  0  0  0  0  0  0  0  0  0  0  0
   -0.0089   -0.5863   -5.1282 H   0  0  0  0  0  0  0  0  0  0  0  0
   -2.4442    2.9695   -4.9428 H   0  0  0  0  0  0  0  0  0  0  0  0
   -4.4851    1.6225   -5.3180 H   0  0  0  0  0  0  0  0  0  0  0  0
   -0.0098    2.0369   -4.8186 N   0  0  0  0  0  0  0  0  0  0  0  0
    1.1069    2.2377   -4.7387 N   0  0  0  0  0  0  0  0  0  0  0  0
    2.3695    0.2687   -6.5666 S   0  0  0  0  0  0  0  0  0  0  0  0
    3.9349    1.2455   -6.7771 C   0  0  0  0  0  0  0  0  0  0  0  0
    2.7116   -1.1121   -6.9165 O   0  0  0  0  0  0  0  0  0  0  0  0
    1.3644    0.9764   -7.3794 O   0  0  0  0  0  0  0  0  0  0  0  0
    2.0951    0.4342   -5.0701 O   0  0  0  0  0  0  0  0  0  0  0  0
    3.7346    2.5205   -6.4029 F   0  0  0  0  0  0  0  0  0  0  0  0
    4.9171    0.7315   -6.0294 F   0  0  0  0  0  0  0  0  0  0  0  0
    4.3173    1.2333   -8.0596 F   0  0  0  0  0  0  0  0  0  0  0  0
   -4.4403   -1.0900   -5.6347 O   0  0  0  0  0  0  0  0  0  0  0  0
   -5.7627   -0.5556   -5.7169 C   0  0  0  0  0  0  0  0  0  0  0  0
   -6.4152   -1.4125   -5.8803 H   0  0  0  0  0  0  0  0  0  0  0  0
   -5.8559    0.1408   -6.5575 H   0  0  0  0  0  0  0  0  0  0  0  0
   -6.0456   -0.0542   -4.7846 H   0  0  0  0  0  0  0  0  0  0  0  0
  1  2  1  0  0  0  0
  2  8  1  0  0  0  0
  2  3  2  0  0  0  0
  3 11  1  0  0  0  0
  4  3  1  0  0  0  0
  4  9  1  0  0  0  0
  5  4  2  0  0  0  0
  6  1  2  0  0  0  0
  6  5  1  0  0  0  0
  7  1  1  0  0  0  0
 10  5  1  0  0  0  0
 11 12  1  0  0  0  0
 13 17  1  0  0  0  0
 14 13  1  0  0  0  0
 14 18  1  0  0  0  0
 14 19  1  0  0  0  0
 15 13  2  0  0  0  0
 16 13  2  0  0  0  0
 20 14  1  0  0  0  0
 21  6  1  0  0  0  0
 22 21  1  0  0  0  0
 22 25  1  0  0  0  0
 23 22  1  0  0  0  0
 24 22  1  0  0  0  0
M  RAD  3  11   2  12   3  17   2
M  END
