Coordinates from ORCA-job p-CH3O-Ph-N2-X-OTf-B3LYPG-6-31G_dp-scan-d09-49-n400
 OpenBabel08281821483D

 25 24  0  0  0  0  0  0  0  0999 V2000
   -2.0509   -0.8821   -5.2438 C   0  0  0  0  0  0  0  0  0  0  0  0
   -0.9020   -0.1349   -5.1135 C   0  0  0  0  0  0  0  0  0  0  0  0
   -1.0388    1.2700   -5.1137 C   0  0  0  0  0  0  0  0  0  0  0  0
   -2.2779    1.9216   -5.2523 C   0  0  0  0  0  0  0  0  0  0  0  0
   -3.4168    1.1505   -5.3924 C   0  0  0  0  0  0  0  0  0  0  0  0
   -3.3104   -0.2584   -5.3882 C   0  0  0  0  0  0  0  0  0  0  0  0
   -2.0078   -1.9655   -5.2560 H   0  0  0  0  0  0  0  0  0  0  0  0
    0.0979   -0.5633   -5.0318 H   0  0  0  0  0  0  0  0  0  0  0  0
   -2.3342    3.0048   -5.2567 H   0  0  0  0  0  0  0  0  0  0  0  0
   -4.3754    1.6390   -5.5074 H   0  0  0  0  0  0  0  0  0  0  0  0
    0.0697    2.0617   -4.9549 N   0  0  0  0  0  0  0  0  0  0  0  0
    0.8975    2.7787   -4.7459 N   0  0  0  0  0  0  0  0  0  0  0  0
    2.2405    0.1072   -6.6685 S   0  0  0  0  0  0  0  0  0  0  0  0
    3.7322    1.2118   -6.5925 C   0  0  0  0  0  0  0  0  0  0  0  0
    2.6051   -0.9605   -7.6061 O   0  0  0  0  0  0  0  0  0  0  0  0
    1.1620    1.0378   -7.1144 O   0  0  0  0  0  0  0  0  0  0  0  0
    2.0692   -0.2948   -5.2391 O   0  0  0  0  0  0  0  0  0  0  0  0
    3.4951    2.2527   -5.7590 F   0  0  0  0  0  0  0  0  0  0  0  0
    4.8034    0.5535   -6.1329 F   0  0  0  0  0  0  0  0  0  0  0  0
    4.0250    1.7129   -7.8001 F   0  0  0  0  0  0  0  0  0  0  0  0
   -4.3521   -1.0894   -5.5149 O   0  0  0  0  0  0  0  0  0  0  0  0
   -5.6696   -0.5592   -5.6883 C   0  0  0  0  0  0  0  0  0  0  0  0
   -6.3239   -1.4261   -5.7692 H   0  0  0  0  0  0  0  0  0  0  0  0
   -5.7358    0.0372   -6.6042 H   0  0  0  0  0  0  0  0  0  0  0  0
   -5.9676    0.0452   -4.8244 H   0  0  0  0  0  0  0  0  0  0  0  0
  1  2  2  0  0  0  0
  2  8  1  0  0  0  0
  3  2  1  0  0  0  0
  3 11  1  0  0  0  0
  4  3  2  0  0  0  0
  5  6  2  0  0  0  0
  5  4  1  0  0  0  0
  6  1  1  0  0  0  0
  7  1  1  0  0  0  0
  9  4  1  0  0  0  0
 10  5  1  0  0  0  0
 11 12  1  0  0  0  0
 13 14  1  0  0  0  0
 13 17  1  0  0  0  0
 14 19  1  0  0  0  0
 14 18  1  0  0  0  0
 15 13  2  0  0  0  0
 16 13  2  0  0  0  0
 20 14  1  0  0  0  0
 21  6  1  0  0  0  0
 22 21  1  0  0  0  0
 22 25  1  0  0  0  0
 23 22  1  0  0  0  0
 24 22  1  0  0  0  0
M  RAD  3  11   2  12   3  17   2
M  END
