Coordinates from ORCA-job p-CH3O-Ph-N2-X-OTf-B3LYPG-6-31G_dp-scan-d09-49-n400
 OpenBabel08281821483D

 25 24  0  0  0  0  0  0  0  0999 V2000
   -2.0293   -0.8478   -5.2917 C   0  0  0  0  0  0  0  0  0  0  0  0
   -0.8926   -0.0774   -5.1895 C   0  0  0  0  0  0  0  0  0  0  0  0
   -1.0618    1.3241   -5.1751 C   0  0  0  0  0  0  0  0  0  0  0  0
   -2.3193    1.9495   -5.2700 C   0  0  0  0  0  0  0  0  0  0  0  0
   -3.4443    1.1547   -5.3832 C   0  0  0  0  0  0  0  0  0  0  0  0
   -3.3060   -0.2518   -5.3944 C   0  0  0  0  0  0  0  0  0  0  0  0
   -1.9624   -1.9299   -5.3137 H   0  0  0  0  0  0  0  0  0  0  0  0
    0.1172   -0.4940   -5.1439 H   0  0  0  0  0  0  0  0  0  0  0  0
   -2.3996    3.0313   -5.2627 H   0  0  0  0  0  0  0  0  0  0  0  0
   -4.4165    1.6225   -5.4655 H   0  0  0  0  0  0  0  0  0  0  0  0
    0.0319    2.1407   -5.0437 N   0  0  0  0  0  0  0  0  0  0  0  0
    0.8460    2.8795   -4.8552 N   0  0  0  0  0  0  0  0  0  0  0  0
    2.2704    0.0799   -6.7461 S   0  0  0  0  0  0  0  0  0  0  0  0
    3.7434    1.1749   -6.4595 C   0  0  0  0  0  0  0  0  0  0  0  0
    2.6824   -0.8320   -7.8183 O   0  0  0  0  0  0  0  0  0  0  0  0
    1.1989    1.0609   -7.0944 O   0  0  0  0  0  0  0  0  0  0  0  0
    2.0547   -0.5286   -5.4001 O   0  0  0  0  0  0  0  0  0  0  0  0
    3.4663    2.0832   -5.4920 F   0  0  0  0  0  0  0  0  0  0  0  0
    4.8086    0.4673   -6.0640 F   0  0  0  0  0  0  0  0  0  0  0  0
    4.0677    1.8500   -7.5708 F   0  0  0  0  0  0  0  0  0  0  0  0
   -4.3319   -1.1047   -5.4988 O   0  0  0  0  0  0  0  0  0  0  0  0
   -5.6652   -0.6035   -5.6333 C   0  0  0  0  0  0  0  0  0  0  0  0
   -6.3012   -1.4843   -5.7080 H   0  0  0  0  0  0  0  0  0  0  0  0
   -5.7678    0.0014   -6.5405 H   0  0  0  0  0  0  0  0  0  0  0  0
   -5.9554   -0.0156   -4.7555 H   0  0  0  0  0  0  0  0  0  0  0  0
  1  2  2  0  0  0  0
  2  3  1  0  0  0  0
  2  8  1  0  0  0  0
  3 11  1  0  0  0  0
  4  9  1  0  0  0  0
  4  3  2  0  0  0  0
  5  4  1  0  0  0  0
  6  5  2  0  0  0  0
  6  1  1  0  0  0  0
  7  1  1  0  0  0  0
 10  5  1  0  0  0  0
 11 12  1  0  0  0  0
 13 14  1  0  0  0  0
 13 17  1  0  0  0  0
 14 19  1  0  0  0  0
 14 18  1  0  0  0  0
 15 13  2  0  0  0  0
 16 13  2  0  0  0  0
 20 14  1  0  0  0  0
 21  6  1  0  0  0  0
 22 21  1  0  0  0  0
 22 25  1  0  0  0  0
 23 22  1  0  0  0  0
 24 22  1  0  0  0  0
M  RAD  3  11   2  12   3  17   2
M  END
