Coordinates from ORCA-job p-CH3O-Ph-N2-X-OTf-B3LYPG-6-31G_dp-scan-d09-49-n400
 OpenBabel08281821483D

 25 24  0  0  0  0  0  0  0  0999 V2000
   -3.0857   -1.5444   -5.5701 C   0  0  0  0  0  0  0  0  0  0  0  0
   -1.7551   -1.3324   -5.8764 C   0  0  0  0  0  0  0  0  0  0  0  0
   -1.2526   -0.0215   -5.8884 C   0  0  0  0  0  0  0  0  0  0  0  0
   -2.0791    1.0751   -5.5996 C   0  0  0  0  0  0  0  0  0  0  0  0
   -3.4152    0.8605   -5.2956 C   0  0  0  0  0  0  0  0  0  0  0  0
   -3.9270   -0.4524   -5.2775 C   0  0  0  0  0  0  0  0  0  0  0  0
   -3.5087   -2.5424   -5.5504 H   0  0  0  0  0  0  0  0  0  0  0  0
   -1.0917   -2.1582   -6.1077 H   0  0  0  0  0  0  0  0  0  0  0  0
   -1.6710    2.0802   -5.6180 H   0  0  0  0  0  0  0  0  0  0  0  0
   -4.0504    1.7090   -5.0747 H   0  0  0  0  0  0  0  0  0  0  0  0
    0.1006    0.1530   -6.2024 N   0  0  0  0  0  0  0  0  0  0  0  0
    0.8442    1.0367   -6.2915 N   0  0  0  0  0  0  0  0  0  0  0  0
    3.5021    1.2888   -7.3132 S   0  0  0  0  0  0  0  0  0  0  0  0
    4.2170    1.9077   -5.7120 C   0  0  0  0  0  0  0  0  0  0  0  0
    4.5964    0.6140   -8.0061 O   0  0  0  0  0  0  0  0  0  0  0  0
    2.8407    2.4456   -7.9145 O   0  0  0  0  0  0  0  0  0  0  0  0
    2.4832    0.2318   -6.7889 O   0  0  0  0  0  0  0  0  0  0  0  0
    3.2417    2.4074   -4.9358 F   0  0  0  0  0  0  0  0  0  0  0  0
    4.8217    0.9154   -5.0508 F   0  0  0  0  0  0  0  0  0  0  0  0
    5.1084    2.8733   -5.9561 F   0  0  0  0  0  0  0  0  0  0  0  0
   -5.2049   -0.7656   -4.9929 O   0  0  0  0  0  0  0  0  0  0  0  0
   -6.1310    0.2798   -4.6956 C   0  0  0  0  0  0  0  0  0  0  0  0
   -7.0817   -0.2160   -4.5020 H   0  0  0  0  0  0  0  0  0  0  0  0
   -6.2427    0.9640   -5.5445 H   0  0  0  0  0  0  0  0  0  0  0  0
   -5.8248    0.8408   -3.8054 H   0  0  0  0  0  0  0  0  0  0  0  0
  1  7  1  0  0  0  0
  1  6  2  0  0  0  0
  2  1  1  0  0  0  0
  3  2  2  0  0  0  0
  3  4  1  0  0  0  0
  4  5  2  0  0  0  0
  5  6  1  0  0  0  0
  5 10  1  0  0  0  0
  6 21  1  0  0  0  0
  8  2  1  0  0  0  0
  9  4  1  0  0  0  0
 11  3  1  0  0  0  0
 12 11  2  0  0  0  0
 13 17  1  0  0  0  0
 13 14  1  0  0  0  0
 14 19  1  0  0  0  0
 14 18  1  0  0  0  0
 15 13  2  0  0  0  0
 16 13  2  0  0  0  0
 20 14  1  0  0  0  0
 21 22  1  0  0  0  0
 22 23  1  0  0  0  0
 22 25  1  0  0  0  0
 24 22  1  0  0  0  0
M  RAD  2  12   2  17   2
M  END
