Coordinates from ORCA-job p-CH3O-Ph-N2-X-OTf-B3LYPG-6-31G_dp-scan-d09-49-n400
 OpenBabel08281821483D

 25 24  0  0  0  0  0  0  0  0999 V2000
   -2.0465   -0.8183   -4.3107 C   0  0  0  0  0  0  0  0  0  0  0  0
   -0.7628   -0.3237   -4.4767 C   0  0  0  0  0  0  0  0  0  0  0  0
   -0.4907    0.7013   -5.4064 C   0  0  0  0  0  0  0  0  0  0  0  0
   -1.5592    1.2156   -6.1607 C   0  0  0  0  0  0  0  0  0  0  0  0
   -2.8514    0.7122   -6.0078 C   0  0  0  0  0  0  0  0  0  0  0  0
   -3.1043   -0.3049   -5.0785 C   0  0  0  0  0  0  0  0  0  0  0  0
   -2.2585   -1.6109   -3.6003 H   0  0  0  0  0  0  0  0  0  0  0  0
    0.0613   -0.7284   -3.8974 H   0  0  0  0  0  0  0  0  0  0  0  0
   -1.3731    2.0002   -6.8842 H   0  0  0  0  0  0  0  0  0  0  0  0
   -3.6501    1.1254   -6.6117 H   0  0  0  0  0  0  0  0  0  0  0  0
    0.8271    1.2046   -5.4350 N   0  0  0  0  0  0  0  0  0  0  0  0
    1.1391    2.9456   -4.3424 N   0  0  0  0  0  0  0  0  0  0  0  0
    1.5827    1.6330   -6.8051 S   0  0  0  0  0  0  0  0  0  0  0  0
    2.7466    0.1997   -7.0874 C   0  0  0  0  0  0  0  0  0  0  0  0
    0.7696    1.7046   -8.0232 O   0  0  0  0  0  0  0  0  0  0  0  0
    2.4641    2.7664   -6.4435 O   0  0  0  0  0  0  0  0  0  0  0  0
    1.8158    2.8014   -3.6912 O   0  0  0  0  0  0  0  0  0  0  0  0
    2.0444   -0.9310   -7.2155 F   0  0  0  0  0  0  0  0  0  0  0  0
    3.4565    0.4054   -8.1999 F   0  0  0  0  0  0  0  0  0  0  0  0
    3.5856    0.0766   -6.0519 F   0  0  0  0  0  0  0  0  0  0  0  0
   -4.3289   -0.8574   -4.8435 O   0  0  0  0  0  0  0  0  0  0  0  0
   -5.4325   -0.3967   -5.6077 C   0  0  0  0  0  0  0  0  0  0  0  0
   -6.2956   -0.9689   -5.2653 H   0  0  0  0  0  0  0  0  0  0  0  0
   -5.2836   -0.5739   -6.6805 H   0  0  0  0  0  0  0  0  0  0  0  0
   -5.6214    0.6723   -5.4434 H   0  0  0  0  0  0  0  0  0  0  0  0
  1  7  1  0  0  0  0
  2  1  1  0  0  0  0
  2  8  1  0  0  0  0
  3  2  2  0  0  0  0
  4  5  2  0  0  0  0
  4  3  1  0  0  0  0
  5  6  1  0  0  0  0
  6 21  1  0  0  0  0
  6  1  2  0  0  0  0
  9  4  1  0  0  0  0
 10  5  1  0  0  0  0
 11  3  1  0  0  0  0
 12 17  2  0  0  0  0
 13 16  2  0  0  0  0
 13 11  1  0  0  0  0
 14 13  1  0  0  0  0
 14 20  1  0  0  0  0
 15 13  2  0  0  0  0
 18 14  1  0  0  0  0
 19 14  1  0  0  0  0
 22 25  1  0  0  0  0
 22 23  1  0  0  0  0
 22 21  1  0  0  0  0
 24 22  1  0  0  0  0
M  RAD  2  11   2  12   2
M  END
