Coordinates from ORCA-job p-CH3O-Ph-N2-X-OTf-B3LYPG-6-31G_dp-scan-d09-49-n400
 OpenBabel08281821483D

 25 24  0  0  0  0  0  0  0  0999 V2000
   -2.0704   -0.9055   -5.2180 C   0  0  0  0  0  0  0  0  0  0  0  0
   -0.9221   -0.1748   -5.0157 C   0  0  0  0  0  0  0  0  0  0  0  0
   -1.0423    1.2329   -4.9806 C   0  0  0  0  0  0  0  0  0  0  0  0
   -2.2648    1.9015   -5.1553 C   0  0  0  0  0  0  0  0  0  0  0  0
   -3.4053    1.1485   -5.3687 C   0  0  0  0  0  0  0  0  0  0  0  0
   -3.3148   -0.2606   -5.4011 C   0  0  0  0  0  0  0  0  0  0  0  0
   -2.0388   -1.9884   -5.2611 H   0  0  0  0  0  0  0  0  0  0  0  0
    0.0627   -0.6181   -4.8944 H   0  0  0  0  0  0  0  0  0  0  0  0
   -2.3082    2.9850   -5.1309 H   0  0  0  0  0  0  0  0  0  0  0  0
   -4.3527    1.6510   -5.5126 H   0  0  0  0  0  0  0  0  0  0  0  0
    0.0853    1.9766   -4.7631 N   0  0  0  0  0  0  0  0  0  0  0  0
    1.0344    2.5184   -4.5425 N   0  0  0  0  0  0  0  0  0  0  0  0
    2.2311    0.1588   -6.5416 S   0  0  0  0  0  0  0  0  0  0  0  0
    3.7042    1.2603   -6.7967 C   0  0  0  0  0  0  0  0  0  0  0  0
    2.5617   -1.0934   -7.2328 O   0  0  0  0  0  0  0  0  0  0  0  0
    1.1065    0.9544   -7.1058 O   0  0  0  0  0  0  0  0  0  0  0  0
    2.1509    0.0737   -5.0470 O   0  0  0  0  0  0  0  0  0  0  0  0
    3.4982    2.4547   -6.1987 F   0  0  0  0  0  0  0  0  0  0  0  0
    4.8103    0.7187   -6.2706 F   0  0  0  0  0  0  0  0  0  0  0  0
    3.9178    1.4831   -8.1009 F   0  0  0  0  0  0  0  0  0  0  0  0
   -4.3583   -1.0757   -5.5980 O   0  0  0  0  0  0  0  0  0  0  0  0
   -5.6607   -0.5251   -5.8161 C   0  0  0  0  0  0  0  0  0  0  0  0
   -6.3205   -1.3815   -5.9478 H   0  0  0  0  0  0  0  0  0  0  0  0
   -5.6793    0.0945   -6.7188 H   0  0  0  0  0  0  0  0  0  0  0  0
   -5.9903    0.0612   -4.9512 H   0  0  0  0  0  0  0  0  0  0  0  0
  1  2  2  0  0  0  0
  2  3  1  0  0  0  0
  2  8  1  0  0  0  0
  3 11  1  0  0  0  0
  4  9  1  0  0  0  0
  4  3  2  0  0  0  0
  5  4  1  0  0  0  0
  6  5  2  0  0  0  0
  6  1  1  0  0  0  0
  7  1  1  0  0  0  0
 10  5  1  0  0  0  0
 11 12  1  0  0  0  0
 13 17  1  0  0  0  0
 14 13  1  0  0  0  0
 14 19  1  0  0  0  0
 14 18  1  0  0  0  0
 15 13  2  0  0  0  0
 16 13  2  0  0  0  0
 20 14  1  0  0  0  0
 21  6  1  0  0  0  0
 22 21  1  0  0  0  0
 22 25  1  0  0  0  0
 23 22  1  0  0  0  0
 24 22  1  0  0  0  0
M  RAD  3  11   2  12   3  17   2
M  END
