Coordinates from ORCA-job p-CH3O-Ph-N2-X-OTf-B3LYPG-6-31G_dp-scan-d09-49-n400
 OpenBabel08281821483D

 25 24  0  0  0  0  0  0  0  0999 V2000
   -1.9349   -0.7560   -5.5239 C   0  0  0  0  0  0  0  0  0  0  0  0
   -0.8391    0.0789   -5.5659 C   0  0  0  0  0  0  0  0  0  0  0  0
   -1.0850    1.4676   -5.4960 C   0  0  0  0  0  0  0  0  0  0  0  0
   -2.3813    2.0133   -5.3895 C   0  0  0  0  0  0  0  0  0  0  0  0
   -3.4625    1.1550   -5.3600 C   0  0  0  0  0  0  0  0  0  0  0  0
   -3.2456   -0.2406   -5.4272 C   0  0  0  0  0  0  0  0  0  0  0  0
   -1.8040   -1.8309   -5.5812 H   0  0  0  0  0  0  0  0  0  0  0  0
    0.1745   -0.3187   -5.6719 H   0  0  0  0  0  0  0  0  0  0  0  0
   -2.5227    3.0878   -5.3404 H   0  0  0  0  0  0  0  0  0  0  0  0
   -4.4616    1.5644   -5.2870 H   0  0  0  0  0  0  0  0  0  0  0  0
   -0.0491    2.3686   -5.4983 N   0  0  0  0  0  0  0  0  0  0  0  0
    0.6852    3.2061   -5.4277 N   0  0  0  0  0  0  0  0  0  0  0  0
    2.4015    0.1275   -7.0537 S   0  0  0  0  0  0  0  0  0  0  0  0
    3.5671    0.9739   -5.8783 C   0  0  0  0  0  0  0  0  0  0  0  0
    3.2194   -0.1994   -8.2239 O   0  0  0  0  0  0  0  0  0  0  0  0
    1.3642    1.1874   -7.2551 O   0  0  0  0  0  0  0  0  0  0  0  0
    1.8938   -1.0173   -6.2480 O   0  0  0  0  0  0  0  0  0  0  0  0
    2.8726    1.4401   -4.8035 F   0  0  0  0  0  0  0  0  0  0  0  0
    4.5113    0.1438   -5.4237 F   0  0  0  0  0  0  0  0  0  0  0  0
    4.1642    2.0264   -6.4545 F   0  0  0  0  0  0  0  0  0  0  0  0
   -4.2247   -1.1522   -5.4058 O   0  0  0  0  0  0  0  0  0  0  0  0
   -5.5898   -0.7314   -5.3279 C   0  0  0  0  0  0  0  0  0  0  0  0
   -6.1779   -1.6479   -5.3344 H   0  0  0  0  0  0  0  0  0  0  0  0
   -5.8614   -0.1155   -6.1921 H   0  0  0  0  0  0  0  0  0  0  0  0
   -5.7799   -0.1806   -4.4003 H   0  0  0  0  0  0  0  0  0  0  0  0
  1  6  1  0  0  0  0
  2  1  2  0  0  0  0
  2  3  1  0  0  0  0
  3  4  2  0  0  0  0
  4  5  1  0  0  0  0
  4  9  1  0  0  0  0
  5 10  1  0  0  0  0
  6 21  1  0  0  0  0
  6  5  2  0  0  0  0
  7  1  1  0  0  0  0
  8  2  1  0  0  0  0
 11  3  1  0  0  0  0
 11 12  1  0  0  0  0
 13 17  1  0  0  0  0
 13 14  1  0  0  0  0
 14 19  1  0  0  0  0
 14 18  1  0  0  0  0
 15 13  2  0  0  0  0
 16 13  2  0  0  0  0
 20 14  1  0  0  0  0
 21 22  1  0  0  0  0
 22 25  1  0  0  0  0
 23 22  1  0  0  0  0
 24 22  1  0  0  0  0
M  RAD  3  11   2  12   3  17   2
M  END
