Coordinates from ORCA-job p-CH3O-Ph-N2-X-OTf-B3LYPG-6-31G_dp-scan-d09-49-n400
 OpenBabel08281821483D

 25 24  0  0  0  0  0  0  0  0999 V2000
   -2.0185   -0.8422   -5.2664 C   0  0  0  0  0  0  0  0  0  0  0  0
   -0.8859   -0.0671   -5.1568 C   0  0  0  0  0  0  0  0  0  0  0  0
   -1.0601    1.3339   -5.1556 C   0  0  0  0  0  0  0  0  0  0  0  0
   -2.3181    1.9548   -5.2701 C   0  0  0  0  0  0  0  0  0  0  0  0
   -3.4391    1.1550   -5.3894 C   0  0  0  0  0  0  0  0  0  0  0  0
   -3.2959   -0.2511   -5.3883 C   0  0  0  0  0  0  0  0  0  0  0  0
   -1.9478   -1.9242   -5.2796 H   0  0  0  0  0  0  0  0  0  0  0  0
    0.1250   -0.4801   -5.0984 H   0  0  0  0  0  0  0  0  0  0  0  0
   -2.4019    3.0362   -5.2736 H   0  0  0  0  0  0  0  0  0  0  0  0
   -4.4119    1.6188   -5.4864 H   0  0  0  0  0  0  0  0  0  0  0  0
    0.0315    2.1528   -5.0242 N   0  0  0  0  0  0  0  0  0  0  0  0
    0.8460    2.8922   -4.8394 N   0  0  0  0  0  0  0  0  0  0  0  0
    2.2521    0.0813   -6.7678 S   0  0  0  0  0  0  0  0  0  0  0  0
    3.7284    1.1655   -6.4581 C   0  0  0  0  0  0  0  0  0  0  0  0
    2.6568   -0.8004   -7.8676 O   0  0  0  0  0  0  0  0  0  0  0  0
    1.1817    1.0747   -7.0830 O   0  0  0  0  0  0  0  0  0  0  0  0
    2.0431   -0.5646   -5.4387 O   0  0  0  0  0  0  0  0  0  0  0  0
    3.4554    2.0493   -5.4665 F   0  0  0  0  0  0  0  0  0  0  0  0
    4.7936    0.4466   -6.0840 F   0  0  0  0  0  0  0  0  0  0  0  0
    4.0506    1.8690   -7.5523 F   0  0  0  0  0  0  0  0  0  0  0  0
   -4.3179   -1.1081   -5.4978 O   0  0  0  0  0  0  0  0  0  0  0  0
   -5.6510   -0.6124   -5.6519 C   0  0  0  0  0  0  0  0  0  0  0  0
   -6.2834   -1.4959   -5.7268 H   0  0  0  0  0  0  0  0  0  0  0  0
   -5.7450   -0.0153   -6.5651 H   0  0  0  0  0  0  0  0  0  0  0  0
   -5.9533   -0.0184   -4.7824 H   0  0  0  0  0  0  0  0  0  0  0  0
  1  2  2  0  0  0  0
  2  3  1  0  0  0  0
  2  8  1  0  0  0  0
  3 11  1  0  0  0  0
  4  3  2  0  0  0  0
  5  6  2  0  0  0  0
  5  4  1  0  0  0  0
  6  1  1  0  0  0  0
  7  1  1  0  0  0  0
  9  4  1  0  0  0  0
 10  5  1  0  0  0  0
 11 12  1  0  0  0  0
 13 14  1  0  0  0  0
 13 17  1  0  0  0  0
 14 19  1  0  0  0  0
 14 18  1  0  0  0  0
 15 13  2  0  0  0  0
 16 13  2  0  0  0  0
 20 14  1  0  0  0  0
 21  6  1  0  0  0  0
 22 21  1  0  0  0  0
 22 25  1  0  0  0  0
 23 22  1  0  0  0  0
 24 22  1  0  0  0  0
M  RAD  3  11   2  12   3  17   2
M  END
