Coordinates from ORCA-job p-CH3O-Ph-N2-X-OTf-B3LYPG-6-31G_dp-scan-d09-49-n400
 OpenBabel08281821483D

 25 24  0  0  0  0  0  0  0  0999 V2000
   -2.1058   -0.8964   -5.2863 C   0  0  0  0  0  0  0  0  0  0  0  0
   -0.9611   -0.1665   -5.0586 C   0  0  0  0  0  0  0  0  0  0  0  0
   -1.0864    1.2372   -4.9536 C   0  0  0  0  0  0  0  0  0  0  0  0
   -2.3155    1.9001   -5.0777 C   0  0  0  0  0  0  0  0  0  0  0  0
   -3.4552    1.1516   -5.3182 C   0  0  0  0  0  0  0  0  0  0  0  0
   -3.3560   -0.2522   -5.4243 C   0  0  0  0  0  0  0  0  0  0  0  0
   -2.0675   -1.9758   -5.3811 H   0  0  0  0  0  0  0  0  0  0  0  0
    0.0190   -0.6191   -4.9578 H   0  0  0  0  0  0  0  0  0  0  0  0
   -2.3654    2.9803   -4.9938 H   0  0  0  0  0  0  0  0  0  0  0  0
   -4.4078    1.6538   -5.4244 H   0  0  0  0  0  0  0  0  0  0  0  0
    0.0501    1.9698   -4.7207 N   0  0  0  0  0  0  0  0  0  0  0  0
    1.1095    2.3063   -4.5581 N   0  0  0  0  0  0  0  0  0  0  0  0
    2.3322    0.1666   -6.4826 S   0  0  0  0  0  0  0  0  0  0  0  0
    3.7619    1.2884   -6.8650 C   0  0  0  0  0  0  0  0  0  0  0  0
    2.7321   -1.1561   -6.9755 O   0  0  0  0  0  0  0  0  0  0  0  0
    1.1777    0.8209   -7.1430 O   0  0  0  0  0  0  0  0  0  0  0  0
    2.2406    0.2621   -4.9781 O   0  0  0  0  0  0  0  0  0  0  0  0
    3.4990    2.5375   -6.4308 F   0  0  0  0  0  0  0  0  0  0  0  0
    4.8795    0.8622   -6.2644 F   0  0  0  0  0  0  0  0  0  0  0  0
    3.9800    1.3431   -8.1856 F   0  0  0  0  0  0  0  0  0  0  0  0
   -4.3966   -1.0655   -5.6519 O   0  0  0  0  0  0  0  0  0  0  0  0
   -5.7040   -0.5127   -5.8249 C   0  0  0  0  0  0  0  0  0  0  0  0
   -6.3611   -1.3648   -5.9938 H   0  0  0  0  0  0  0  0  0  0  0  0
   -5.7379    0.1540   -6.6933 H   0  0  0  0  0  0  0  0  0  0  0  0
   -6.0270    0.0253   -4.9267 H   0  0  0  0  0  0  0  0  0  0  0  0
  1  2  2  0  0  0  0
  2  8  1  0  0  0  0
  2  3  1  0  0  0  0
  3 11  1  0  0  0  0
  4  9  1  0  0  0  0
  4  3  2  0  0  0  0
  5  4  1  0  0  0  0
  6  5  2  0  0  0  0
  6  1  1  0  0  0  0
  7  1  1  0  0  0  0
 10  5  1  0  0  0  0
 11 12  1  0  0  0  0
 13 17  1  0  0  0  0
 14 13  1  0  0  0  0
 14 18  1  0  0  0  0
 14 19  1  0  0  0  0
 15 13  2  0  0  0  0
 16 13  2  0  0  0  0
 20 14  1  0  0  0  0
 21  6  1  0  0  0  0
 22 21  1  0  0  0  0
 22 25  1  0  0  0  0
 23 22  1  0  0  0  0
 24 22  1  0  0  0  0
M  RAD  3  11   2  12   3  17   2
M  END
