Coordinates from ORCA-job p-CH3O-Ph-N2-X-OTf-B3LYPG-6-31G_dp-scan-d09-49-n400
 OpenBabel08281821483D

 25 24  0  0  0  0  0  0  0  0999 V2000
   -2.0138   -0.8312   -5.3028 C   0  0  0  0  0  0  0  0  0  0  0  0
   -0.8847   -0.0480   -5.2124 C   0  0  0  0  0  0  0  0  0  0  0  0
   -1.0703    1.3515   -5.1998 C   0  0  0  0  0  0  0  0  0  0  0  0
   -2.3359    1.9627   -5.2843 C   0  0  0  0  0  0  0  0  0  0  0  0
   -3.4526    1.1549   -5.3854 C   0  0  0  0  0  0  0  0  0  0  0  0
   -3.2981   -0.2501   -5.3952 C   0  0  0  0  0  0  0  0  0  0  0  0
   -1.9344   -1.9125   -5.3233 H   0  0  0  0  0  0  0  0  0  0  0  0
    0.1290   -0.4586   -5.1767 H   0  0  0  0  0  0  0  0  0  0  0  0
   -2.4284    3.0435   -5.2788 H   0  0  0  0  0  0  0  0  0  0  0  0
   -4.4309    1.6114   -5.4597 H   0  0  0  0  0  0  0  0  0  0  0  0
    0.0152    2.1807   -5.0823 N   0  0  0  0  0  0  0  0  0  0  0  0
    0.8237    2.9295   -4.9089 N   0  0  0  0  0  0  0  0  0  0  0  0
    2.2763    0.0777   -6.7948 S   0  0  0  0  0  0  0  0  0  0  0  0
    3.7368    1.1518   -6.3892 C   0  0  0  0  0  0  0  0  0  0  0  0
    2.7188   -0.7483   -7.9227 O   0  0  0  0  0  0  0  0  0  0  0  0
    1.2116    1.0820   -7.0953 O   0  0  0  0  0  0  0  0  0  0  0  0
    2.0303   -0.6319   -5.5054 O   0  0  0  0  0  0  0  0  0  0  0  0
    3.4258    1.9918   -5.3700 F   0  0  0  0  0  0  0  0  0  0  0  0
    4.7915    0.4209   -6.0091 F   0  0  0  0  0  0  0  0  0  0  0  0
    4.0936    1.9035   -7.4397 F   0  0  0  0  0  0  0  0  0  0  0  0
   -4.3152   -1.1147   -5.4886 O   0  0  0  0  0  0  0  0  0  0  0  0
   -5.6552   -0.6291   -5.6125 C   0  0  0  0  0  0  0  0  0  0  0  0
   -6.2816   -1.5173   -5.6811 H   0  0  0  0  0  0  0  0  0  0  0  0
   -5.7723   -0.0264   -6.5193 H   0  0  0  0  0  0  0  0  0  0  0  0
   -5.9449   -0.0438   -4.7328 H   0  0  0  0  0  0  0  0  0  0  0  0
  1  2  2  0  0  0  0
  2  3  1  0  0  0  0
  2  8  1  0  0  0  0
  3 11  1  0  0  0  0
  4  9  1  0  0  0  0
  4  3  2  0  0  0  0
  5  4  1  0  0  0  0
  6  5  2  0  0  0  0
  6  1  1  0  0  0  0
  7  1  1  0  0  0  0
 10  5  1  0  0  0  0
 11 12  1  0  0  0  0
 13 14  1  0  0  0  0
 13 17  1  0  0  0  0
 14 19  1  0  0  0  0
 14 18  1  0  0  0  0
 15 13  2  0  0  0  0
 16 13  2  0  0  0  0
 20 14  1  0  0  0  0
 21  6  1  0  0  0  0
 22 21  1  0  0  0  0
 22 25  1  0  0  0  0
 23 22  1  0  0  0  0
 24 22  1  0  0  0  0
M  RAD  3  11   2  12   3  17   2
M  END
