Coordinates from ORCA-job p-CH3O-Ph-N2-X-OTf-B3LYPG-6-31G_dp-scan-d09-49-n400
 OpenBabel08281821483D

 25 24  0  0  0  0  0  0  0  0999 V2000
   -2.0468   -0.8789   -5.2343 C   0  0  0  0  0  0  0  0  0  0  0  0
   -0.8993   -0.1297   -5.1040 C   0  0  0  0  0  0  0  0  0  0  0  0
   -1.0383    1.2749   -5.1106 C   0  0  0  0  0  0  0  0  0  0  0  0
   -2.2780    1.9242   -5.2555 C   0  0  0  0  0  0  0  0  0  0  0  0
   -3.4154    1.1509   -5.3954 C   0  0  0  0  0  0  0  0  0  0  0  0
   -3.3069   -0.2577   -5.3849 C   0  0  0  0  0  0  0  0  0  0  0  0
   -2.0022   -1.9623   -5.2418 H   0  0  0  0  0  0  0  0  0  0  0  0
    0.1010   -0.5574   -5.0198 H   0  0  0  0  0  0  0  0  0  0  0  0
   -2.3358    3.0073   -5.2651 H   0  0  0  0  0  0  0  0  0  0  0  0
   -4.3744    1.6376   -5.5154 H   0  0  0  0  0  0  0  0  0  0  0  0
    0.0685    2.0691   -4.9530 N   0  0  0  0  0  0  0  0  0  0  0  0
    0.8929    2.7902   -4.7434 N   0  0  0  0  0  0  0  0  0  0  0  0
    2.2354    0.1052   -6.6842 S   0  0  0  0  0  0  0  0  0  0  0  0
    3.7270    1.2080   -6.5835 C   0  0  0  0  0  0  0  0  0  0  0  0
    2.5986   -0.9381   -7.6492 O   0  0  0  0  0  0  0  0  0  0  0  0
    1.1567    1.0471   -7.1063 O   0  0  0  0  0  0  0  0  0  0  0  0
    2.0666   -0.3321   -5.2653 O   0  0  0  0  0  0  0  0  0  0  0  0
    3.4941    2.2241   -5.7185 F   0  0  0  0  0  0  0  0  0  0  0  0
    4.8010    0.5370   -6.1492 F   0  0  0  0  0  0  0  0  0  0  0  0
    4.0132    1.7447   -7.7773 F   0  0  0  0  0  0  0  0  0  0  0  0
   -4.3468   -1.0910   -5.5107 O   0  0  0  0  0  0  0  0  0  0  0  0
   -5.6645   -0.5637   -5.6911 C   0  0  0  0  0  0  0  0  0  0  0  0
   -6.3173   -1.4319   -5.7703 H   0  0  0  0  0  0  0  0  0  0  0  0
   -5.7284    0.0285   -6.6101 H   0  0  0  0  0  0  0  0  0  0  0  0
   -5.9666    0.0443   -4.8311 H   0  0  0  0  0  0  0  0  0  0  0  0
  1  2  2  0  0  0  0
  2  8  1  0  0  0  0
  3  2  1  0  0  0  0
  3 11  1  0  0  0  0
  4  3  2  0  0  0  0
  5  6  2  0  0  0  0
  5  4  1  0  0  0  0
  6  1  1  0  0  0  0
  7  1  1  0  0  0  0
  9  4  1  0  0  0  0
 10  5  1  0  0  0  0
 11 12  1  0  0  0  0
 13 14  1  0  0  0  0
 13 17  1  0  0  0  0
 14 19  1  0  0  0  0
 14 18  1  0  0  0  0
 15 13  2  0  0  0  0
 16 13  2  0  0  0  0
 20 14  1  0  0  0  0
 21  6  1  0  0  0  0
 22 21  1  0  0  0  0
 22 25  1  0  0  0  0
 23 22  1  0  0  0  0
 24 22  1  0  0  0  0
M  RAD  3  11   2  12   3  17   2
M  END
