Coordinates from ORCA-job p-CH3O-Ph-N2-X-OTf-B3LYPG-6-31G_dp-scan-d09-49-n400
 OpenBabel08281821483D

 25 25  0  0  0  0  0  0  0  0999 V2000
   -3.1020   -1.6136   -5.5520 C   0  0  0  0  0  0  0  0  0  0  0  0
   -1.7668   -1.5285   -5.9049 C   0  0  0  0  0  0  0  0  0  0  0  0
   -1.1428   -0.2739   -5.9841 C   0  0  0  0  0  0  0  0  0  0  0  0
   -1.8654    0.8970   -5.7108 C   0  0  0  0  0  0  0  0  0  0  0  0
   -3.2054    0.8150   -5.3585 C   0  0  0  0  0  0  0  0  0  0  0  0
   -3.8327   -0.4434   -5.2761 C   0  0  0  0  0  0  0  0  0  0  0  0
   -3.6094   -2.5694   -5.4829 H   0  0  0  0  0  0  0  0  0  0  0  0
   -1.1864   -2.4179   -6.1244 H   0  0  0  0  0  0  0  0  0  0  0  0
   -1.3759    1.8628   -5.7791 H   0  0  0  0  0  0  0  0  0  0  0  0
   -3.7542    1.7253   -5.1514 H   0  0  0  0  0  0  0  0  0  0  0  0
    0.2227   -0.2816   -6.3546 N   0  0  0  0  0  0  0  0  0  0  0  0
    0.8540    0.7253   -6.4343 N   0  0  0  0  0  0  0  0  0  0  0  0
    3.3326    1.4514   -7.2846 S   0  0  0  0  0  0  0  0  0  0  0  0
    3.8892    1.9962   -5.5913 C   0  0  0  0  0  0  0  0  0  0  0  0
    4.5040    0.9046   -7.9520 O   0  0  0  0  0  0  0  0  0  0  0  0
    2.5677    2.5582   -7.8402 O   0  0  0  0  0  0  0  0  0  0  0  0
    2.3981    0.2111   -6.8970 O   0  0  0  0  0  0  0  0  0  0  0  0
    2.8299    2.3493   -4.8539 F   0  0  0  0  0  0  0  0  0  0  0  0
    4.5379    1.0061   -4.9780 F   0  0  0  0  0  0  0  0  0  0  0  0
    4.7033    3.0456   -5.7207 F   0  0  0  0  0  0  0  0  0  0  0  0
   -5.1281   -0.6291   -4.9424 O   0  0  0  0  0  0  0  0  0  0  0  0
   -5.9399    0.5072   -4.6569 C   0  0  0  0  0  0  0  0  0  0  0  0
   -6.9272    0.1129   -4.4174 H   0  0  0  0  0  0  0  0  0  0  0  0
   -6.0146    1.1723   -5.5254 H   0  0  0  0  0  0  0  0  0  0  0  0
   -5.5543    1.0674   -3.7972 H   0  0  0  0  0  0  0  0  0  0  0  0
  1  7  1  0  0  0  0
  1  6  2  0  0  0  0
  2  1  1  0  0  0  0
  3  2  2  0  0  0  0
  3  4  1  0  0  0  0
  4  5  2  0  0  0  0
  5  6  1  0  0  0  0
  5 10  1  0  0  0  0
  6 21  1  0  0  0  0
  8  2  1  0  0  0  0
  9  4  1  0  0  0  0
 11  3  1  0  0  0  0
 12 11  1  0  0  0  0
 13 17  1  0  0  0  0
 13 14  1  0  0  0  0
 14 19  1  0  0  0  0
 14 18  1  0  0  0  0
 15 13  2  0  0  0  0
 16 13  2  0  0  0  0
 17 12  1  0  0  0  0
 20 14  1  0  0  0  0
 21 22  1  0  0  0  0
 22 23  1  0  0  0  0
 22 25  1  0  0  0  0
 24 22  1  0  0  0  0
M  RAD  2  11   2  12   2
M  END
