Coordinates from ORCA-job p-CH3O-Ph-N2-X-OTf-B3LYPG-6-31G_dp-scan-d09-49-n400
 OpenBabel08281821483D

 25 24  0  0  0  0  0  0  0  0999 V2000
   -1.9402   -0.5633   -5.9320 C   0  0  0  0  0  0  0  0  0  0  0  0
   -0.9645    0.3526   -6.2647 C   0  0  0  0  0  0  0  0  0  0  0  0
   -1.3053    1.7198   -6.1898 C   0  0  0  0  0  0  0  0  0  0  0  0
   -2.5851    2.1646   -5.7904 C   0  0  0  0  0  0  0  0  0  0  0  0
   -3.5429    1.2282   -5.4571 C   0  0  0  0  0  0  0  0  0  0  0  0
   -3.2261   -0.1488   -5.5269 C   0  0  0  0  0  0  0  0  0  0  0  0
   -1.7216   -1.6247   -5.9702 H   0  0  0  0  0  0  0  0  0  0  0  0
    0.0334    0.0319   -6.5598 H   0  0  0  0  0  0  0  0  0  0  0  0
   -2.8068    3.2256   -5.7442 H   0  0  0  0  0  0  0  0  0  0  0  0
   -4.5237    1.5626   -5.1453 H   0  0  0  0  0  0  0  0  0  0  0  0
   -0.4085    2.7110   -6.5160 N   0  0  0  0  0  0  0  0  0  0  0  0
    0.1520    3.6461   -6.7623 N   0  0  0  0  0  0  0  0  0  0  0  0
    2.6014    0.2801   -6.7725 S   0  0  0  0  0  0  0  0  0  0  0  0
    3.6297    0.3401   -5.2268 C   0  0  0  0  0  0  0  0  0  0  0  0
    3.5718    0.3146   -7.8715 O   0  0  0  0  0  0  0  0  0  0  0  0
    1.7527    1.5142   -6.6409 O   0  0  0  0  0  0  0  0  0  0  0  0
    1.8044   -0.9645   -6.6153 O   0  0  0  0  0  0  0  0  0  0  0  0
    2.8395    0.3476   -4.1351 F   0  0  0  0  0  0  0  0  0  0  0  0
    4.4368   -0.7266   -5.1511 F   0  0  0  0  0  0  0  0  0  0  0  0
    4.3850    1.4490   -5.1990 F   0  0  0  0  0  0  0  0  0  0  0  0
   -4.0837   -1.1308   -5.2260 O   0  0  0  0  0  0  0  0  0  0  0  0
   -5.4122   -0.8123   -4.8001 C   0  0  0  0  0  0  0  0  0  0  0  0
   -5.8976   -1.7705   -4.6205 H   0  0  0  0  0  0  0  0  0  0  0  0
   -5.9553   -0.2670   -5.5795 H   0  0  0  0  0  0  0  0  0  0  0  0
   -5.3992   -0.2292   -3.8730 H   0  0  0  0  0  0  0  0  0  0  0  0
  1  6  2  0  0  0  0
  2  3  2  0  0  0  0
  2  1  1  0  0  0  0
  3  4  1  0  0  0  0
  4  9  1  0  0  0  0
  4  5  2  0  0  0  0
  5 10  1  0  0  0  0
  6  5  1  0  0  0  0
  6 21  1  0  0  0  0
  7  1  1  0  0  0  0
  8  2  1  0  0  0  0
 11  3  1  0  0  0  0
 12 11  1  0  0  0  0
 13 16  2  0  0  0  0
 13 17  1  0  0  0  0
 13 14  1  0  0  0  0
 14 20  1  0  0  0  0
 14 19  1  0  0  0  0
 14 18  1  0  0  0  0
 15 13  2  0  0  0  0
 21 22  1  0  0  0  0
 22 23  1  0  0  0  0
 22 25  1  0  0  0  0
 24 22  1  0  0  0  0
M  RAD  3  11   2  12   3  17   2
M  END
