Coordinates from ORCA-job p-CH3O-Ph-N2-X-OTf-B3LYPG-6-31G_dp-scan-d09-49-n400
 OpenBabel08281821483D

 25 24  0  0  0  0  0  0  0  0999 V2000
   -2.0552   -0.8941   -5.2151 C   0  0  0  0  0  0  0  0  0  0  0  0
   -0.9031   -0.1547   -5.0708 C   0  0  0  0  0  0  0  0  0  0  0  0
   -1.0284    1.2511   -5.0821 C   0  0  0  0  0  0  0  0  0  0  0  0
   -2.2600    1.9109   -5.2446 C   0  0  0  0  0  0  0  0  0  0  0  0
   -3.4027    1.1478   -5.3977 C   0  0  0  0  0  0  0  0  0  0  0  0
   -3.3074   -0.2616   -5.3836 C   0  0  0  0  0  0  0  0  0  0  0  0
   -2.0204   -1.9778   -5.2201 H   0  0  0  0  0  0  0  0  0  0  0  0
    0.0918   -0.5883   -4.9707 H   0  0  0  0  0  0  0  0  0  0  0  0
   -2.3077    2.9945   -5.2573 H   0  0  0  0  0  0  0  0  0  0  0  0
   -4.3555    1.6431   -5.5308 H   0  0  0  0  0  0  0  0  0  0  0  0
    0.0837    2.0357   -4.9136 N   0  0  0  0  0  0  0  0  0  0  0  0
    0.9157    2.7458   -4.6989 N   0  0  0  0  0  0  0  0  0  0  0  0
    2.2230    0.1210   -6.6474 S   0  0  0  0  0  0  0  0  0  0  0  0
    3.7175    1.2243   -6.6397 C   0  0  0  0  0  0  0  0  0  0  0  0
    2.5741   -0.9912   -7.5373 O   0  0  0  0  0  0  0  0  0  0  0  0
    1.1400    1.0314   -7.1212 O   0  0  0  0  0  0  0  0  0  0  0  0
    2.0687   -0.2144   -5.1982 O   0  0  0  0  0  0  0  0  0  0  0  0
    3.4873    2.3082   -5.8619 F   0  0  0  0  0  0  0  0  0  0  0  0
    4.7903    0.5887   -6.1523 F   0  0  0  0  0  0  0  0  0  0  0  0
    4.0037    1.6589   -7.8743 F   0  0  0  0  0  0  0  0  0  0  0  0
   -4.3533   -1.0856   -5.5218 O   0  0  0  0  0  0  0  0  0  0  0  0
   -5.6635   -0.5462   -5.7198 C   0  0  0  0  0  0  0  0  0  0  0  0
   -6.3234   -1.4084   -5.8057 H   0  0  0  0  0  0  0  0  0  0  0  0
   -5.7104    0.0448   -6.6405 H   0  0  0  0  0  0  0  0  0  0  0  0
   -5.9706    0.0661   -4.8646 H   0  0  0  0  0  0  0  0  0  0  0  0
  1  2  2  0  0  0  0
  2  8  1  0  0  0  0
  3  2  1  0  0  0  0
  3 11  1  0  0  0  0
  4  3  2  0  0  0  0
  5  6  2  0  0  0  0
  5  4  1  0  0  0  0
  6  1  1  0  0  0  0
  7  1  1  0  0  0  0
  9  4  1  0  0  0  0
 10  5  1  0  0  0  0
 11 12  1  0  0  0  0
 13 14  1  0  0  0  0
 13 17  1  0  0  0  0
 14 19  1  0  0  0  0
 14 18  1  0  0  0  0
 15 13  2  0  0  0  0
 16 13  2  0  0  0  0
 20 14  1  0  0  0  0
 21  6  1  0  0  0  0
 22 21  1  0  0  0  0
 22 25  1  0  0  0  0
 23 22  1  0  0  0  0
 24 22  1  0  0  0  0
M  RAD  3  11   2  12   3  17   2
M  END
