Coordinates from ORCA-job p-CH3O-Ph-N2-X-OTf-B3LYPG-6-31G_dp-scan-d09-49-n400
 OpenBabel08281821483D

 25 24  0  0  0  0  0  0  0  0999 V2000
   -2.0608   -0.9030   -5.2166 C   0  0  0  0  0  0  0  0  0  0  0  0
   -0.9060   -0.1692   -5.0651 C   0  0  0  0  0  0  0  0  0  0  0  0
   -1.0245    1.2373   -5.0699 C   0  0  0  0  0  0  0  0  0  0  0  0
   -2.2524    1.9028   -5.2349 C   0  0  0  0  0  0  0  0  0  0  0  0
   -3.3982    1.1457   -5.3958 C   0  0  0  0  0  0  0  0  0  0  0  0
   -3.3095   -0.2640   -5.3871 C   0  0  0  0  0  0  0  0  0  0  0  0
   -2.0307   -1.9868   -5.2267 H   0  0  0  0  0  0  0  0  0  0  0  0
    0.0854   -0.6078   -4.9621 H   0  0  0  0  0  0  0  0  0  0  0  0
   -2.2951    2.9866   -5.2429 H   0  0  0  0  0  0  0  0  0  0  0  0
   -4.3481    1.6459   -5.5306 H   0  0  0  0  0  0  0  0  0  0  0  0
    0.0907    2.0149   -4.8922 N   0  0  0  0  0  0  0  0  0  0  0  0
    0.9334    2.7091   -4.6683 N   0  0  0  0  0  0  0  0  0  0  0  0
    2.2218    0.1316   -6.6199 S   0  0  0  0  0  0  0  0  0  0  0  0
    3.7138    1.2369   -6.6697 C   0  0  0  0  0  0  0  0  0  0  0  0
    2.5705   -1.0208   -7.4586 O   0  0  0  0  0  0  0  0  0  0  0  0
    1.1334    1.0161   -7.1275 O   0  0  0  0  0  0  0  0  0  0  0  0
    2.0749   -0.1376   -5.1555 O   0  0  0  0  0  0  0  0  0  0  0  0
    3.4841    2.3546   -5.9419 F   0  0  0  0  0  0  0  0  0  0  0  0
    4.7899    0.6262   -6.1582 F   0  0  0  0  0  0  0  0  0  0  0  0
    3.9936    1.6146   -7.9243 F   0  0  0  0  0  0  0  0  0  0  0  0
   -4.3585   -1.0829   -5.5329 O   0  0  0  0  0  0  0  0  0  0  0  0
   -5.6654   -0.5366   -5.7338 C   0  0  0  0  0  0  0  0  0  0  0  0
   -6.3291   -1.3953   -5.8253 H   0  0  0  0  0  0  0  0  0  0  0  0
   -5.7061    0.0579   -6.6526 H   0  0  0  0  0  0  0  0  0  0  0  0
   -5.9728    0.0742   -4.8776 H   0  0  0  0  0  0  0  0  0  0  0  0
  1  2  2  0  0  0  0
  2  8  1  0  0  0  0
  3  2  1  0  0  0  0
  3 11  1  0  0  0  0
  4  3  2  0  0  0  0
  5  6  2  0  0  0  0
  5  4  1  0  0  0  0
  6  1  1  0  0  0  0
  7  1  1  0  0  0  0
  9  4  1  0  0  0  0
 10  5  1  0  0  0  0
 11 12  1  0  0  0  0
 13 17  1  0  0  0  0
 14 13  1  0  0  0  0
 14 19  1  0  0  0  0
 14 18  1  0  0  0  0
 15 13  2  0  0  0  0
 16 13  2  0  0  0  0
 20 14  1  0  0  0  0
 21  6  1  0  0  0  0
 22 21  1  0  0  0  0
 22 25  1  0  0  0  0
 23 22  1  0  0  0  0
 24 22  1  0  0  0  0
M  RAD  3  11   2  12   3  17   2
M  END
