Coordinates from ORCA-job p-CH3O-Ph-N2-X-OTf-B3LYPG-6-31G_dp-scan-d09-49-n400
 OpenBabel08281821483D

 25 25  0  0  0  0  0  0  0  0999 V2000
   -2.1209   -1.1874   -5.2433 C   0  0  0  0  0  0  0  0  0  0  0  0
   -0.8452   -0.6502   -5.2741 C   0  0  0  0  0  0  0  0  0  0  0  0
   -0.6803    0.7287   -5.4573 C   0  0  0  0  0  0  0  0  0  0  0  0
   -1.7890    1.5602   -5.6169 C   0  0  0  0  0  0  0  0  0  0  0  0
   -3.0752    1.0253   -5.5727 C   0  0  0  0  0  0  0  0  0  0  0  0
   -3.2452   -0.3547   -5.3895 C   0  0  0  0  0  0  0  0  0  0  0  0
   -2.2801   -2.2507   -5.1010 H   0  0  0  0  0  0  0  0  0  0  0  0
    0.0241   -1.2869   -5.1565 H   0  0  0  0  0  0  0  0  0  0  0  0
   -1.6438    2.6251   -5.7659 H   0  0  0  0  0  0  0  0  0  0  0  0
   -3.9265    1.6838   -5.6897 H   0  0  0  0  0  0  0  0  0  0  0  0
    0.6362    1.2983   -5.4749 N   0  0  0  0  0  0  0  0  0  0  0  0
    0.9485    2.2205   -4.5850 N   0  0  0  0  0  0  0  0  0  0  0  0
    1.6588    1.1082   -6.9734 S   0  0  0  0  0  0  0  0  0  0  0  0
    3.3864    0.6822   -6.3021 C   0  0  0  0  0  0  0  0  0  0  0  0
    1.1516   -0.1245   -7.5640 O   0  0  0  0  0  0  0  0  0  0  0  0
    1.7139    2.3593   -7.7142 O   0  0  0  0  0  0  0  0  0  0  0  0
    2.1186    2.7860   -4.8220 O   0  0  0  0  0  0  0  0  0  0  0  0
    3.2757    0.1894   -5.0720 F   0  0  0  0  0  0  0  0  0  0  0  0
    3.8720   -0.2547   -7.1157 F   0  0  0  0  0  0  0  0  0  0  0  0
    4.1709    1.7406   -6.3233 F   0  0  0  0  0  0  0  0  0  0  0  0
   -4.4465   -0.9816   -5.3395 O   0  0  0  0  0  0  0  0  0  0  0  0
   -5.6292   -0.2034   -5.4789 C   0  0  0  0  0  0  0  0  0  0  0  0
   -6.4590   -0.9072   -5.4104 H   0  0  0  0  0  0  0  0  0  0  0  0
   -5.6637    0.3038   -6.4506 H   0  0  0  0  0  0  0  0  0  0  0  0
   -5.7177    0.5401   -4.6770 H   0  0  0  0  0  0  0  0  0  0  0  0
  1  7  1  0  0  0  0
  2  1  1  0  0  0  0
  2  8  1  0  0  0  0
  3  2  2  0  0  0  0
  4  5  2  0  0  0  0
  4  3  1  0  0  0  0
  5  6  1  0  0  0  0
  6 21  1  0  0  0  0
  6  1  2  0  0  0  0
  9  4  1  0  0  0  0
 10  5  1  0  0  0  0
 11  3  1  0  0  0  0
 11 12  1  0  0  0  0
 13 14  1  0  0  0  0
 13 11  1  0  0  0  0
 14 18  1  0  0  0  0
 15 13  2  0  0  0  0
 16 13  2  0  0  0  0
 17 12  1  0  0  0  0
 19 14  1  0  0  0  0
 20 14  1  0  0  0  0
 22 23  1  0  0  0  0
 22 21  1  0  0  0  0
 22 25  1  0  0  0  0
 24 22  1  0  0  0  0
M  RAD  2  12   2  17   2
M  END
