Coordinates from ORCA-job p-CH3O-Ph-N2-X-OTf-B3LYPG-6-31G_dp-scan-d09-49-n400
 OpenBabel08281821483D

 25 24  0  0  0  0  0  0  0  0999 V2000
   -1.9376   -0.6023   -6.3106 C   0  0  0  0  0  0  0  0  0  0  0  0
   -0.9293    0.2863   -6.6179 C   0  0  0  0  0  0  0  0  0  0  0  0
   -1.1005    1.6288   -6.2183 C   0  0  0  0  0  0  0  0  0  0  0  0
   -2.2468    2.0756   -5.5253 C   0  0  0  0  0  0  0  0  0  0  0  0
   -3.2421    1.1670   -5.2267 C   0  0  0  0  0  0  0  0  0  0  0  0
   -3.0943   -0.1839   -5.6201 C   0  0  0  0  0  0  0  0  0  0  0  0
   -1.8450   -1.6466   -6.5856 H   0  0  0  0  0  0  0  0  0  0  0  0
   -0.0191   -0.0314   -7.1168 H   0  0  0  0  0  0  0  0  0  0  0  0
   -2.3380    3.1154   -5.2308 H   0  0  0  0  0  0  0  0  0  0  0  0
   -4.1224    1.5029   -4.6945 H   0  0  0  0  0  0  0  0  0  0  0  0
   -0.1574    2.5884   -6.4946 N   0  0  0  0  0  0  0  0  0  0  0  0
    0.4761    3.4951   -6.6501 N   0  0  0  0  0  0  0  0  0  0  0  0
    2.5977    0.1482   -6.9083 S   0  0  0  0  0  0  0  0  0  0  0  0
    2.8652    0.6705   -5.1436 C   0  0  0  0  0  0  0  0  0  0  0  0
    3.9426    0.0370   -7.4774 O   0  0  0  0  0  0  0  0  0  0  0  0
    1.7713    1.2935   -7.4215 O   0  0  0  0  0  0  0  0  0  0  0  0
    1.8011   -1.0955   -6.7758 O   0  0  0  0  0  0  0  0  0  0  0  0
    1.6656    0.9412   -4.5588 F   0  0  0  0  0  0  0  0  0  0  0  0
    3.4633   -0.2837   -4.4234 F   0  0  0  0  0  0  0  0  0  0  0  0
    3.6037    1.7878   -5.0708 F   0  0  0  0  0  0  0  0  0  0  0  0
   -4.0006   -1.1381   -5.3778 O   0  0  0  0  0  0  0  0  0  0  0  0
   -5.1987   -0.8196   -4.6637 C   0  0  0  0  0  0  0  0  0  0  0  0
   -5.7529   -1.7548   -4.5932 H   0  0  0  0  0  0  0  0  0  0  0  0
   -5.7963   -0.0796   -5.2072 H   0  0  0  0  0  0  0  0  0  0  0  0
   -4.9713   -0.4522   -3.6574 H   0  0  0  0  0  0  0  0  0  0  0  0
  1  6  1  0  0  0  0
  2  1  2  0  0  0  0
  2  3  1  0  0  0  0
  3  4  2  0  0  0  0
  4  9  1  0  0  0  0
  4  5  1  0  0  0  0
  5 10  1  0  0  0  0
  6 21  1  0  0  0  0
  6  5  2  0  0  0  0
  7  1  1  0  0  0  0
  8  2  1  0  0  0  0
 11  3  1  0  0  0  0
 12 11  1  0  0  0  0
 13 17  1  0  0  0  0
 13 14  1  0  0  0  0
 14 20  1  0  0  0  0
 14 18  1  0  0  0  0
 14 19  1  0  0  0  0
 15 13  2  0  0  0  0
 16 13  2  0  0  0  0
 21 22  1  0  0  0  0
 22 23  1  0  0  0  0
 22 25  1  0  0  0  0
 24 22  1  0  0  0  0
M  RAD  3  11   2  12   3  17   2
M  END
