Coordinates from ORCA-job p-CH3O-Ph-N2-X-OTf-B3LYPG-6-31G_dp-scan-d09-49-n400
 OpenBabel08281821483D

 25 24  0  0  0  0  0  0  0  0999 V2000
   -2.0599   -0.8997   -5.2198 C   0  0  0  0  0  0  0  0  0  0  0  0
   -0.9058   -0.1638   -5.0736 C   0  0  0  0  0  0  0  0  0  0  0  0
   -1.0266    1.2423   -5.0803 C   0  0  0  0  0  0  0  0  0  0  0  0
   -2.2561    1.9059   -5.2416 C   0  0  0  0  0  0  0  0  0  0  0  0
   -3.4012    1.1466   -5.3970 C   0  0  0  0  0  0  0  0  0  0  0  0
   -3.3102   -0.2630   -5.3866 C   0  0  0  0  0  0  0  0  0  0  0  0
   -2.0281   -1.9835   -5.2280 H   0  0  0  0  0  0  0  0  0  0  0  0
    0.0872   -0.6004   -4.9733 H   0  0  0  0  0  0  0  0  0  0  0  0
   -2.3007    2.9896   -5.2511 H   0  0  0  0  0  0  0  0  0  0  0  0
   -4.3524    1.6451   -5.5290 H   0  0  0  0  0  0  0  0  0  0  0  0
    0.0878    2.0227   -4.9075 N   0  0  0  0  0  0  0  0  0  0  0  0
    0.9250    2.7245   -4.6862 N   0  0  0  0  0  0  0  0  0  0  0  0
    2.2261    0.1257   -6.6271 S   0  0  0  0  0  0  0  0  0  0  0  0
    3.7177    1.2326   -6.6556 C   0  0  0  0  0  0  0  0  0  0  0  0
    2.5790   -1.0139   -7.4812 O   0  0  0  0  0  0  0  0  0  0  0  0
    1.1395    1.0171   -7.1268 O   0  0  0  0  0  0  0  0  0  0  0  0
    2.0735   -0.1641   -5.1675 O   0  0  0  0  0  0  0  0  0  0  0  0
    3.4843    2.3406   -5.9138 F   0  0  0  0  0  0  0  0  0  0  0  0
    4.7921    0.6160   -6.1476 F   0  0  0  0  0  0  0  0  0  0  0  0
    4.0028    1.6273   -7.9037 F   0  0  0  0  0  0  0  0  0  0  0  0
   -4.3585   -1.0837   -5.5271 O   0  0  0  0  0  0  0  0  0  0  0  0
   -5.6671   -0.5396   -5.7237 C   0  0  0  0  0  0  0  0  0  0  0  0
   -6.3297   -1.3995   -5.8118 H   0  0  0  0  0  0  0  0  0  0  0  0
   -5.7121    0.0538   -6.6430 H   0  0  0  0  0  0  0  0  0  0  0  0
   -5.9722    0.0716   -4.8671 H   0  0  0  0  0  0  0  0  0  0  0  0
  1  2  2  0  0  0  0
  2  8  1  0  0  0  0
  3  2  1  0  0  0  0
  3 11  1  0  0  0  0
  4  3  2  0  0  0  0
  5  6  2  0  0  0  0
  5  4  1  0  0  0  0
  6  1  1  0  0  0  0
  7  1  1  0  0  0  0
  9  4  1  0  0  0  0
 10  5  1  0  0  0  0
 11 12  1  0  0  0  0
 13 17  1  0  0  0  0
 14 13  1  0  0  0  0
 14 19  1  0  0  0  0
 14 18  1  0  0  0  0
 15 13  2  0  0  0  0
 16 13  2  0  0  0  0
 20 14  1  0  0  0  0
 21  6  1  0  0  0  0
 22 21  1  0  0  0  0
 22 25  1  0  0  0  0
 23 22  1  0  0  0  0
 24 22  1  0  0  0  0
M  RAD  3  11   2  12   3  17   2
M  END
