Coordinates from ORCA-job p-CH3O-Ph-N2-X-OTf-B3LYPG-6-31G_dp-scan-d09-49-n400
 OpenBabel08281821483D

 25 24  0  0  0  0  0  0  0  0999 V2000
   -2.2256   -0.8748   -5.4923 C   0  0  0  0  0  0  0  0  0  0  0  0
   -1.0859   -0.1017   -5.4154 C   0  0  0  0  0  0  0  0  0  0  0  0
   -1.2341    1.2930   -5.2444 C   0  0  0  0  0  0  0  0  0  0  0  0
   -2.4981    1.8913   -5.1502 C   0  0  0  0  0  0  0  0  0  0  0  0
   -3.6374    1.1051   -5.2309 C   0  0  0  0  0  0  0  0  0  0  0  0
   -3.5056   -0.2863   -5.4035 C   0  0  0  0  0  0  0  0  0  0  0  0
   -2.1608   -1.9489   -5.6271 H   0  0  0  0  0  0  0  0  0  0  0  0
   -0.0922   -0.5278   -5.4818 H   0  0  0  0  0  0  0  0  0  0  0  0
   -2.5736    2.9653   -5.0185 H   0  0  0  0  0  0  0  0  0  0  0  0
   -4.6121    1.5706   -5.1620 H   0  0  0  0  0  0  0  0  0  0  0  0
   -0.1289    2.1282   -5.1672 N   0  0  0  0  0  0  0  0  0  0  0  0
    1.0110    2.2695   -5.2108 N   0  0  0  0  0  0  0  0  0  0  0  0
    2.5451    0.4495   -6.8359 S   0  0  0  0  0  0  0  0  0  0  0  0
    4.2241    1.1482   -6.4559 C   0  0  0  0  0  0  0  0  0  0  0  0
    2.7632   -0.9497   -7.2028 O   0  0  0  0  0  0  0  0  0  0  0  0
    1.9443    1.3716   -7.8057 O   0  0  0  0  0  0  0  0  0  0  0  0
    1.8582    0.5494   -5.4524 O   0  0  0  0  0  0  0  0  0  0  0  0
    4.1049    2.4006   -5.9925 F   0  0  0  0  0  0  0  0  0  0  0  0
    4.8434    0.4052   -5.5332 F   0  0  0  0  0  0  0  0  0  0  0  0
    4.9681    1.1683   -7.5671 F   0  0  0  0  0  0  0  0  0  0  0  0
   -4.5394   -1.1412   -5.4933 O   0  0  0  0  0  0  0  0  0  0  0  0
   -5.8738   -0.6384   -5.4191 C   0  0  0  0  0  0  0  0  0  0  0  0
   -6.5216   -1.5087   -5.5185 H   0  0  0  0  0  0  0  0  0  0  0  0
   -6.0778    0.0644   -6.2346 H   0  0  0  0  0  0  0  0  0  0  0  0
   -6.0611   -0.1524   -4.4550 H   0  0  0  0  0  0  0  0  0  0  0  0
  1  2  2  0  0  0  0
  1  6  1  0  0  0  0
  2  3  1  0  0  0  0
  3 11  1  0  0  0  0
  3  4  2  0  0  0  0
  4  9  1  0  0  0  0
  5 10  1  0  0  0  0
  5  4  1  0  0  0  0
  6  5  2  0  0  0  0
  7  1  1  0  0  0  0
  8  2  1  0  0  0  0
 12 11  2  0  0  0  0
 13 14  1  0  0  0  0
 13 17  1  0  0  0  0
 14 18  1  0  0  0  0
 14 19  1  0  0  0  0
 15 13  2  0  0  0  0
 16 13  2  0  0  0  0
 20 14  1  0  0  0  0
 21 22  1  0  0  0  0
 21  6  1  0  0  0  0
 22 25  1  0  0  0  0
 23 22  1  0  0  0  0
 24 22  1  0  0  0  0
M  RAD  2  12   2  17   2
M  END
