Coordinates from ORCA-job p-CH3O-Ph-N2-X-OTf-B3LYPG-6-31G_dp-scan-d09-49-n400
 OpenBabel08281821483D

 25 24  0  0  0  0  0  0  0  0999 V2000
   -2.0755   -0.8968   -5.2336 C   0  0  0  0  0  0  0  0  0  0  0  0
   -0.9322   -0.1631   -5.0143 C   0  0  0  0  0  0  0  0  0  0  0  0
   -1.0599    1.2436   -4.9556 C   0  0  0  0  0  0  0  0  0  0  0  0
   -2.2855    1.9074   -5.1196 C   0  0  0  0  0  0  0  0  0  0  0  0
   -3.4215    1.1522   -5.3507 C   0  0  0  0  0  0  0  0  0  0  0  0
   -3.3228   -0.2554   -5.4088 C   0  0  0  0  0  0  0  0  0  0  0  0
   -2.0377   -1.9786   -5.2958 H   0  0  0  0  0  0  0  0  0  0  0  0
    0.0520   -0.6062   -4.8943 H   0  0  0  0  0  0  0  0  0  0  0  0
   -2.3350    2.9899   -5.0741 H   0  0  0  0  0  0  0  0  0  0  0  0
   -4.3715    1.6516   -5.4879 H   0  0  0  0  0  0  0  0  0  0  0  0
    0.0697    1.9813   -4.7273 N   0  0  0  0  0  0  0  0  0  0  0  0
    1.0640    2.4523   -4.5353 N   0  0  0  0  0  0  0  0  0  0  0  0
    2.2559    0.1578   -6.5180 S   0  0  0  0  0  0  0  0  0  0  0  0
    3.7156    1.2621   -6.8318 C   0  0  0  0  0  0  0  0  0  0  0  0
    2.5971   -1.1218   -7.1514 O   0  0  0  0  0  0  0  0  0  0  0  0
    1.1167    0.9126   -7.1037 O   0  0  0  0  0  0  0  0  0  0  0  0
    2.1902    0.1316   -5.0178 O   0  0  0  0  0  0  0  0  0  0  0  0
    3.5046    2.4777   -6.2825 F   0  0  0  0  0  0  0  0  0  0  0  0
    4.8308    0.7510   -6.2946 F   0  0  0  0  0  0  0  0  0  0  0  0
    3.9146    1.4311   -8.1463 F   0  0  0  0  0  0  0  0  0  0  0  0
   -4.3611   -1.0730   -5.6237 O   0  0  0  0  0  0  0  0  0  0  0  0
   -5.6661   -0.5259   -5.8344 C   0  0  0  0  0  0  0  0  0  0  0  0
   -6.3207   -1.3835   -5.9831 H   0  0  0  0  0  0  0  0  0  0  0  0
   -5.6865    0.1100   -6.7258 H   0  0  0  0  0  0  0  0  0  0  0  0
   -6.0009    0.0426   -4.9597 H   0  0  0  0  0  0  0  0  0  0  0  0
  1  2  2  0  0  0  0
  2  3  1  0  0  0  0
  2  8  1  0  0  0  0
  3 11  1  0  0  0  0
  4  9  1  0  0  0  0
  4  3  2  0  0  0  0
  5  4  1  0  0  0  0
  6  5  2  0  0  0  0
  6  1  1  0  0  0  0
  7  1  1  0  0  0  0
 10  5  1  0  0  0  0
 11 12  1  0  0  0  0
 13 17  1  0  0  0  0
 14 13  1  0  0  0  0
 14 19  1  0  0  0  0
 14 18  1  0  0  0  0
 15 13  2  0  0  0  0
 16 13  2  0  0  0  0
 20 14  1  0  0  0  0
 21  6  1  0  0  0  0
 22 21  1  0  0  0  0
 22 25  1  0  0  0  0
 23 22  1  0  0  0  0
 24 22  1  0  0  0  0
M  RAD  3  11   2  12   3  17   2
M  END
