Coordinates from ORCA-job p-CH3O-Ph-N2-X-OTf-B3LYPG-6-31G_dp-scan-d09-49-n400
 OpenBabel08281821483D

 25 24  0  0  0  0  0  0  0  0999 V2000
   -2.0878   -0.8983   -5.2486 C   0  0  0  0  0  0  0  0  0  0  0  0
   -0.9433   -0.1677   -5.0244 C   0  0  0  0  0  0  0  0  0  0  0  0
   -1.0680    1.2385   -4.9505 C   0  0  0  0  0  0  0  0  0  0  0  0
   -2.2930    1.9045   -5.1042 C   0  0  0  0  0  0  0  0  0  0  0  0
   -3.4310    1.1534   -5.3408 C   0  0  0  0  0  0  0  0  0  0  0  0
   -3.3345   -0.2533   -5.4143 C   0  0  0  0  0  0  0  0  0  0  0  0
   -2.0517   -1.9794   -5.3212 H   0  0  0  0  0  0  0  0  0  0  0  0
    0.0383   -0.6155   -4.9081 H   0  0  0  0  0  0  0  0  0  0  0  0
   -2.3408    2.9865   -5.0462 H   0  0  0  0  0  0  0  0  0  0  0  0
   -4.3808    1.6554   -5.4700 H   0  0  0  0  0  0  0  0  0  0  0  0
    0.0665    1.9693   -4.7182 N   0  0  0  0  0  0  0  0  0  0  0  0
    1.0891    2.3831   -4.5314 N   0  0  0  0  0  0  0  0  0  0  0  0
    2.2872    0.1547   -6.4998 S   0  0  0  0  0  0  0  0  0  0  0  0
    3.7226    1.2797   -6.8509 C   0  0  0  0  0  0  0  0  0  0  0  0
    2.6597   -1.1398   -7.0826 O   0  0  0  0  0  0  0  0  0  0  0  0
    1.1305    0.8600   -7.1086 O   0  0  0  0  0  0  0  0  0  0  0  0
    2.2219    0.1761   -4.9968 O   0  0  0  0  0  0  0  0  0  0  0  0
    3.4826    2.5096   -6.3489 F   0  0  0  0  0  0  0  0  0  0  0  0
    4.8465    0.8132   -6.2923 F   0  0  0  0  0  0  0  0  0  0  0  0
    3.9212    1.4022   -8.1705 F   0  0  0  0  0  0  0  0  0  0  0  0
   -4.3746   -1.0677   -5.6354 O   0  0  0  0  0  0  0  0  0  0  0  0
   -5.6790   -0.5163   -5.8368 C   0  0  0  0  0  0  0  0  0  0  0  0
   -6.3356   -1.3710   -5.9935 H   0  0  0  0  0  0  0  0  0  0  0  0
   -5.7007    0.1297   -6.7209 H   0  0  0  0  0  0  0  0  0  0  0  0
   -6.0109    0.0431   -4.9551 H   0  0  0  0  0  0  0  0  0  0  0  0
  1  2  2  0  0  0  0
  2  3  1  0  0  0  0
  2  8  1  0  0  0  0
  3 11  1  0  0  0  0
  4  9  1  0  0  0  0
  4  3  2  0  0  0  0
  5  4  1  0  0  0  0
  6  5  2  0  0  0  0
  6  1  1  0  0  0  0
  7  1  1  0  0  0  0
 10  5  1  0  0  0  0
 11 12  1  0  0  0  0
 13 17  1  0  0  0  0
 14 13  1  0  0  0  0
 14 18  1  0  0  0  0
 14 19  1  0  0  0  0
 15 13  2  0  0  0  0
 16 13  2  0  0  0  0
 20 14  1  0  0  0  0
 21  6  1  0  0  0  0
 22 21  1  0  0  0  0
 22 25  1  0  0  0  0
 23 22  1  0  0  0  0
 24 22  1  0  0  0  0
M  RAD  3  11   2  12   3  17   2
M  END
