Coordinates from ORCA-job p-CH3O-Ph-N2-X-OTf-B3LYPG-6-31G_dp-scan-d09-49-n400
 OpenBabel08281821483D

 25 24  0  0  0  0  0  0  0  0999 V2000
   -2.0404   -0.8330   -4.3265 C   0  0  0  0  0  0  0  0  0  0  0  0
   -0.7540   -0.3497   -4.4984 C   0  0  0  0  0  0  0  0  0  0  0  0
   -0.4817    0.6824   -5.4207 C   0  0  0  0  0  0  0  0  0  0  0  0
   -1.5512    1.2183   -6.1587 C   0  0  0  0  0  0  0  0  0  0  0  0
   -2.8467    0.7279   -5.9981 C   0  0  0  0  0  0  0  0  0  0  0  0
   -3.1001   -0.2986   -5.0784 C   0  0  0  0  0  0  0  0  0  0  0  0
   -2.2547   -1.6313   -3.6233 H   0  0  0  0  0  0  0  0  0  0  0  0
    0.0717   -0.7678   -3.9315 H   0  0  0  0  0  0  0  0  0  0  0  0
   -1.3640    2.0086   -6.8757 H   0  0  0  0  0  0  0  0  0  0  0  0
   -3.6473    1.1565   -6.5883 H   0  0  0  0  0  0  0  0  0  0  0  0
    0.8404    1.1722   -5.4547 N   0  0  0  0  0  0  0  0  0  0  0  0
    0.9757    2.8411   -4.3640 N   0  0  0  0  0  0  0  0  0  0  0  0
    1.5859    1.6183   -6.8408 S   0  0  0  0  0  0  0  0  0  0  0  0
    2.8026    0.2200   -7.0679 C   0  0  0  0  0  0  0  0  0  0  0  0
    0.7605    1.6102   -8.0516 O   0  0  0  0  0  0  0  0  0  0  0  0
    2.4079    2.7971   -6.5094 O   0  0  0  0  0  0  0  0  0  0  0  0
    1.7124    2.7707   -3.6911 O   0  0  0  0  0  0  0  0  0  0  0  0
    2.1436   -0.9384   -7.1692 F   0  0  0  0  0  0  0  0  0  0  0  0
    3.5108    0.4234   -8.1814 F   0  0  0  0  0  0  0  0  0  0  0  0
    3.6358    0.1606   -6.0240 F   0  0  0  0  0  0  0  0  0  0  0  0
   -4.3261   -0.8409   -4.8387 O   0  0  0  0  0  0  0  0  0  0  0  0
   -5.4354   -0.3582   -5.5823 C   0  0  0  0  0  0  0  0  0  0  0  0
   -6.2993   -0.9266   -5.2359 H   0  0  0  0  0  0  0  0  0  0  0  0
   -5.3018   -0.5226   -6.6590 H   0  0  0  0  0  0  0  0  0  0  0  0
   -5.6105    0.7100   -5.4001 H   0  0  0  0  0  0  0  0  0  0  0  0
  1  7  1  0  0  0  0
  2  1  1  0  0  0  0
  2  8  1  0  0  0  0
  3  2  2  0  0  0  0
  4  5  2  0  0  0  0
  4  3  1  0  0  0  0
  5  6  1  0  0  0  0
  6 21  1  0  0  0  0
  6  1  2  0  0  0  0
  9  4  1  0  0  0  0
 10  5  1  0  0  0  0
 11  3  1  0  0  0  0
 12 17  2  0  0  0  0
 13 16  2  0  0  0  0
 13 11  1  0  0  0  0
 14 13  1  0  0  0  0
 14 20  1  0  0  0  0
 15 13  2  0  0  0  0
 18 14  1  0  0  0  0
 19 14  1  0  0  0  0
 22 25  1  0  0  0  0
 22 23  1  0  0  0  0
 22 21  1  0  0  0  0
 24 22  1  0  0  0  0
M  RAD  2  11   2  12   2
M  END
