Coordinates from ORCA-job p-CH3O-Ph-N2-X-OTf-B3LYPG-6-31G_dp-scan-d09-49-n400
 OpenBabel08281821483D

 25 24  0  0  0  0  0  0  0  0999 V2000
   -2.0321   -0.8586   -5.2519 C   0  0  0  0  0  0  0  0  0  0  0  0
   -0.8924   -0.0955   -5.1331 C   0  0  0  0  0  0  0  0  0  0  0  0
   -1.0506    1.3073   -5.1347 C   0  0  0  0  0  0  0  0  0  0  0  0
   -2.3004    1.9414   -5.2624 C   0  0  0  0  0  0  0  0  0  0  0  0
   -3.4291    1.1538   -5.3910 C   0  0  0  0  0  0  0  0  0  0  0  0
   -3.3017   -0.2536   -5.3862 C   0  0  0  0  0  0  0  0  0  0  0  0
   -1.9734   -1.9413   -5.2630 H   0  0  0  0  0  0  0  0  0  0  0  0
    0.1141   -0.5151   -5.0644 H   0  0  0  0  0  0  0  0  0  0  0  0
   -2.3723    3.0237   -5.2680 H   0  0  0  0  0  0  0  0  0  0  0  0
   -4.3957    1.6282   -5.4979 H   0  0  0  0  0  0  0  0  0  0  0  0
    0.0482    2.1148   -4.9911 N   0  0  0  0  0  0  0  0  0  0  0  0
    0.8668    2.8460   -4.7930 N   0  0  0  0  0  0  0  0  0  0  0  0
    2.2453    0.0891   -6.7296 S   0  0  0  0  0  0  0  0  0  0  0  0
    3.7297    1.1856   -6.5169 C   0  0  0  0  0  0  0  0  0  0  0  0
    2.6278   -0.8647   -7.7760 O   0  0  0  0  0  0  0  0  0  0  0  0
    1.1699    1.0618   -7.0879 O   0  0  0  0  0  0  0  0  0  0  0  0
    2.0588   -0.4679   -5.3568 O   0  0  0  0  0  0  0  0  0  0  0  0
    3.4810    2.1265   -5.5736 F   0  0  0  0  0  0  0  0  0  0  0  0
    4.8017    0.4858   -6.1254 F   0  0  0  0  0  0  0  0  0  0  0  0
    4.0284    1.8216   -7.6580 F   0  0  0  0  0  0  0  0  0  0  0  0
   -4.3321   -1.0997   -5.5032 O   0  0  0  0  0  0  0  0  0  0  0  0
   -5.6583   -0.5894   -5.6696 C   0  0  0  0  0  0  0  0  0  0  0  0
   -6.3000   -1.4660   -5.7468 H   0  0  0  0  0  0  0  0  0  0  0  0
   -5.7383    0.0058   -6.5853 H   0  0  0  0  0  0  0  0  0  0  0  0
   -5.9608    0.0107   -4.8042 H   0  0  0  0  0  0  0  0  0  0  0  0
  1  2  2  0  0  0  0
  2  8  1  0  0  0  0
  3  2  1  0  0  0  0
  3 11  1  0  0  0  0
  4  3  2  0  0  0  0
  5  6  2  0  0  0  0
  5  4  1  0  0  0  0
  6  1  1  0  0  0  0
  7  1  1  0  0  0  0
  9  4  1  0  0  0  0
 10  5  1  0  0  0  0
 11 12  1  0  0  0  0
 13 14  1  0  0  0  0
 13 17  1  0  0  0  0
 14 19  1  0  0  0  0
 14 18  1  0  0  0  0
 15 13  2  0  0  0  0
 16 13  2  0  0  0  0
 20 14  1  0  0  0  0
 21  6  1  0  0  0  0
 22 21  1  0  0  0  0
 22 25  1  0  0  0  0
 23 22  1  0  0  0  0
 24 22  1  0  0  0  0
M  RAD  3  11   2  12   3  17   2
M  END
