Coordinates from ORCA-job p-CH3O-Ph-N2-X-OTf-B3LYPG-6-31G_dp-scan-d09-49-n400
 OpenBabel08281821483D

 25 24  0  0  0  0  0  0  0  0999 V2000
   -2.1133   -0.8926   -5.3068 C   0  0  0  0  0  0  0  0  0  0  0  0
   -0.9704   -0.1581   -5.0820 C   0  0  0  0  0  0  0  0  0  0  0  0
   -1.1003    1.2435   -4.9622 C   0  0  0  0  0  0  0  0  0  0  0  0
   -2.3348    1.8986   -5.0669 C   0  0  0  0  0  0  0  0  0  0  0  0
   -3.4736    1.1470   -5.3047 C   0  0  0  0  0  0  0  0  0  0  0  0
   -3.3683   -0.2545   -5.4265 C   0  0  0  0  0  0  0  0  0  0  0  0
   -2.0700   -1.9709   -5.4119 H   0  0  0  0  0  0  0  0  0  0  0  0
    0.0110   -0.6095   -4.9924 H   0  0  0  0  0  0  0  0  0  0  0  0
   -2.3896    2.9775   -4.9705 H   0  0  0  0  0  0  0  0  0  0  0  0
   -4.4298    1.6454   -5.3963 H   0  0  0  0  0  0  0  0  0  0  0  0
    0.0332    1.9873   -4.7337 N   0  0  0  0  0  0  0  0  0  0  0  0
    1.1162    2.2705   -4.5977 N   0  0  0  0  0  0  0  0  0  0  0  0
    2.3400    0.1982   -6.4964 S   0  0  0  0  0  0  0  0  0  0  0  0
    3.8080    1.2771   -6.8553 C   0  0  0  0  0  0  0  0  0  0  0  0
    2.7254   -1.1467   -6.9362 O   0  0  0  0  0  0  0  0  0  0  0  0
    1.2184    0.8593   -7.1990 O   0  0  0  0  0  0  0  0  0  0  0  0
    2.2075    0.3270   -4.9912 O   0  0  0  0  0  0  0  0  0  0  0  0
    3.5701    2.5349   -6.4372 F   0  0  0  0  0  0  0  0  0  0  0  0
    4.8987    0.8231   -6.2272 F   0  0  0  0  0  0  0  0  0  0  0  0
    4.0538    1.3114   -8.1714 F   0  0  0  0  0  0  0  0  0  0  0  0
   -4.4069   -1.0720   -5.6529 O   0  0  0  0  0  0  0  0  0  0  0  0
   -5.7183   -0.5240   -5.8066 C   0  0  0  0  0  0  0  0  0  0  0  0
   -6.3732   -1.3774   -5.9779 H   0  0  0  0  0  0  0  0  0  0  0  0
   -5.7646    0.1519   -6.6674 H   0  0  0  0  0  0  0  0  0  0  0  0
   -6.0349    0.0031   -4.8997 H   0  0  0  0  0  0  0  0  0  0  0  0
  1  2  1  0  0  0  0
  2  8  1  0  0  0  0
  2  3  2  0  0  0  0
  3 11  1  0  0  0  0
  4  9  1  0  0  0  0
  4  3  1  0  0  0  0
  5  4  2  0  0  0  0
  6  1  2  0  0  0  0
  6  5  1  0  0  0  0
  7  1  1  0  0  0  0
 10  5  1  0  0  0  0
 11 12  1  0  0  0  0
 13 17  1  0  0  0  0
 14 13  1  0  0  0  0
 14 18  1  0  0  0  0
 14 19  1  0  0  0  0
 15 13  2  0  0  0  0
 16 13  2  0  0  0  0
 20 14  1  0  0  0  0
 21  6  1  0  0  0  0
 22 21  1  0  0  0  0
 22 25  1  0  0  0  0
 23 22  1  0  0  0  0
 24 22  1  0  0  0  0
M  RAD  3  11   2  12   3  17   2
M  END
