Coordinates from ORCA-job p-CH3O-Ph-N2-X-OTf-B3LYPG-6-31G_dp-scan-d09-49-n400
 OpenBabel08281821483D

 25 24  0  0  0  0  0  0  0  0999 V2000
   -1.9548   -0.7719   -5.4902 C   0  0  0  0  0  0  0  0  0  0  0  0
   -0.8519    0.0544   -5.5030 C   0  0  0  0  0  0  0  0  0  0  0  0
   -1.0896    1.4447   -5.4371 C   0  0  0  0  0  0  0  0  0  0  0  0
   -2.3833    2.0013   -5.3661 C   0  0  0  0  0  0  0  0  0  0  0  0
   -3.4716    1.1512   -5.3652 C   0  0  0  0  0  0  0  0  0  0  0  0
   -3.2635   -0.2460   -5.4269 C   0  0  0  0  0  0  0  0  0  0  0  0
   -1.8320   -1.8479   -5.5450 H   0  0  0  0  0  0  0  0  0  0  0  0
    0.1640   -0.3459   -5.5840 H   0  0  0  0  0  0  0  0  0  0  0  0
   -2.5174    3.0769   -5.3207 H   0  0  0  0  0  0  0  0  0  0  0  0
   -4.4691    1.5681   -5.3188 H   0  0  0  0  0  0  0  0  0  0  0  0
   -0.0438    2.3328   -5.4098 N   0  0  0  0  0  0  0  0  0  0  0  0
    0.7109    3.1487   -5.3093 N   0  0  0  0  0  0  0  0  0  0  0  0
    2.3809    0.1195   -7.0081 S   0  0  0  0  0  0  0  0  0  0  0  0
    3.6282    1.0222   -5.9667 C   0  0  0  0  0  0  0  0  0  0  0  0
    3.1212   -0.2945   -8.2025 O   0  0  0  0  0  0  0  0  0  0  0  0
    1.3399    1.1736   -7.2150 O   0  0  0  0  0  0  0  0  0  0  0  0
    1.9150   -0.9652   -6.0994 O   0  0  0  0  0  0  0  0  0  0  0  0
    3.0148    1.5602   -4.8773 F   0  0  0  0  0  0  0  0  0  0  0  0
    4.5940    0.2078   -5.5287 F   0  0  0  0  0  0  0  0  0  0  0  0
    4.1934    2.0295   -6.6461 F   0  0  0  0  0  0  0  0  0  0  0  0
   -4.2496   -1.1502   -5.4305 O   0  0  0  0  0  0  0  0  0  0  0  0
   -5.6131   -0.7193   -5.3875 C   0  0  0  0  0  0  0  0  0  0  0  0
   -6.2077   -1.6314   -5.4096 H   0  0  0  0  0  0  0  0  0  0  0  0
   -5.8577   -0.1009   -6.2579 H   0  0  0  0  0  0  0  0  0  0  0  0
   -5.8230   -0.1676   -4.4646 H   0  0  0  0  0  0  0  0  0  0  0  0
  1  6  1  0  0  0  0
  2  1  2  0  0  0  0
  2  3  1  0  0  0  0
  3 11  1  0  0  0  0
  3  4  2  0  0  0  0
  4  5  1  0  0  0  0
  4  9  1  0  0  0  0
  5 10  1  0  0  0  0
  6  5  2  0  0  0  0
  7  1  1  0  0  0  0
  8  2  1  0  0  0  0
 11 12  1  0  0  0  0
 13 17  1  0  0  0  0
 13 14  1  0  0  0  0
 14 19  1  0  0  0  0
 14 18  1  0  0  0  0
 15 13  2  0  0  0  0
 16 13  2  0  0  0  0
 20 14  1  0  0  0  0
 21  6  1  0  0  0  0
 21 22  1  0  0  0  0
 22 25  1  0  0  0  0
 23 22  1  0  0  0  0
 24 22  1  0  0  0  0
M  RAD  3  11   2  12   3  17   2
M  END
