Coordinates from ORCA-job p-CH3O-Ph-N2-X-OTf-B3LYPG-6-31G_dp-scan-d09-49-n400
 OpenBabel08281821483D

 25 25  0  0  0  0  0  0  0  0999 V2000
   -2.0925   -1.1558   -5.1144 C   0  0  0  0  0  0  0  0  0  0  0  0
   -0.8227   -0.6050   -5.1597 C   0  0  0  0  0  0  0  0  0  0  0  0
   -0.6665    0.7572   -5.4443 C   0  0  0  0  0  0  0  0  0  0  0  0
   -1.7800    1.5588   -5.6923 C   0  0  0  0  0  0  0  0  0  0  0  0
   -3.0617    1.0124   -5.6393 C   0  0  0  0  0  0  0  0  0  0  0  0
   -3.2212   -0.3509   -5.3521 C   0  0  0  0  0  0  0  0  0  0  0  0
   -2.2439   -2.2065   -4.8929 H   0  0  0  0  0  0  0  0  0  0  0  0
    0.0527   -1.2174   -4.9732 H   0  0  0  0  0  0  0  0  0  0  0  0
   -1.6439    2.6112   -5.9192 H   0  0  0  0  0  0  0  0  0  0  0  0
   -3.9172    1.6487   -5.8267 H   0  0  0  0  0  0  0  0  0  0  0  0
    0.6473    1.3313   -5.4767 N   0  0  0  0  0  0  0  0  0  0  0  0
    1.0204    2.1703   -4.4886 N   0  0  0  0  0  0  0  0  0  0  0  0
    1.6179    1.2185   -6.9868 S   0  0  0  0  0  0  0  0  0  0  0  0
    3.3126    0.6169   -6.3777 C   0  0  0  0  0  0  0  0  0  0  0  0
    1.0284    0.0921   -7.6996 O   0  0  0  0  0  0  0  0  0  0  0  0
    1.7730    2.5334   -7.5919 O   0  0  0  0  0  0  0  0  0  0  0  0
    2.1410    2.6788   -4.6479 O   0  0  0  0  0  0  0  0  0  0  0  0
    3.1665   -0.0072   -5.2094 F   0  0  0  0  0  0  0  0  0  0  0  0
    3.7557   -0.2447   -7.2914 F   0  0  0  0  0  0  0  0  0  0  0  0
    4.1564    1.6254   -6.2674 F   0  0  0  0  0  0  0  0  0  0  0  0
   -4.4173   -0.9869   -5.2796 O   0  0  0  0  0  0  0  0  0  0  0  0
   -5.6038   -0.2386   -5.5165 C   0  0  0  0  0  0  0  0  0  0  0  0
   -6.4281   -0.9438   -5.4056 H   0  0  0  0  0  0  0  0  0  0  0  0
   -5.6186    0.1799   -6.5300 H   0  0  0  0  0  0  0  0  0  0  0  0
   -5.7202    0.5722   -4.7868 H   0  0  0  0  0  0  0  0  0  0  0  0
  1  7  1  0  0  0  0
  2  1  1  0  0  0  0
  2  8  1  0  0  0  0
  3  2  2  0  0  0  0
  4  5  2  0  0  0  0
  4  3  1  0  0  0  0
  5  6  1  0  0  0  0
  6 21  1  0  0  0  0
  6  1  2  0  0  0  0
  9  4  1  0  0  0  0
 10  5  1  0  0  0  0
 11  3  1  0  0  0  0
 11 12  1  0  0  0  0
 13 14  1  0  0  0  0
 13 11  1  0  0  0  0
 14 20  1  0  0  0  0
 14 18  1  0  0  0  0
 15 13  2  0  0  0  0
 16 13  2  0  0  0  0
 17 12  1  0  0  0  0
 19 14  1  0  0  0  0
 22 23  1  0  0  0  0
 22 21  1  0  0  0  0
 22 25  1  0  0  0  0
 24 22  1  0  0  0  0
M  RAD  2  12   2  17   2
M  END
