Coordinates from ORCA-job p-CH3O-Ph-N2-X-OTf-B3LYPG-6-31G_dp-scan-d09-49-n400
 OpenBabel08281821483D

 25 24  0  0  0  0  0  0  0  0999 V2000
   -2.0698   -0.9082   -5.2124 C   0  0  0  0  0  0  0  0  0  0  0  0
   -0.9197   -0.1790   -5.0146 C   0  0  0  0  0  0  0  0  0  0  0  0
   -1.0372    1.2289   -4.9870 C   0  0  0  0  0  0  0  0  0  0  0  0
   -2.2585    1.8992   -5.1647 C   0  0  0  0  0  0  0  0  0  0  0  0
   -3.4007    1.1474   -5.3733 C   0  0  0  0  0  0  0  0  0  0  0  0
   -3.3131   -0.2620   -5.3980 C   0  0  0  0  0  0  0  0  0  0  0  0
   -2.0404   -1.9914   -5.2499 H   0  0  0  0  0  0  0  0  0  0  0  0
    0.0651   -0.6226   -4.8934 H   0  0  0  0  0  0  0  0  0  0  0  0
   -2.2998    2.9828   -5.1463 H   0  0  0  0  0  0  0  0  0  0  0  0
   -4.3470    1.6512   -5.5195 H   0  0  0  0  0  0  0  0  0  0  0  0
    0.0898    1.9750   -4.7726 N   0  0  0  0  0  0  0  0  0  0  0  0
    1.0273    2.5356   -4.5504 N   0  0  0  0  0  0  0  0  0  0  0  0
    2.2252    0.1580   -6.5509 S   0  0  0  0  0  0  0  0  0  0  0  0
    3.7006    1.2613   -6.7857 C   0  0  0  0  0  0  0  0  0  0  0  0
    2.5577   -1.0851   -7.2574 O   0  0  0  0  0  0  0  0  0  0  0  0
    1.1043    0.9625   -7.1105 O   0  0  0  0  0  0  0  0  0  0  0  0
    2.1381    0.0553   -5.0582 O   0  0  0  0  0  0  0  0  0  0  0  0
    3.4919    2.4491   -6.1750 F   0  0  0  0  0  0  0  0  0  0  0  0
    4.8038    0.7136   -6.2600 F   0  0  0  0  0  0  0  0  0  0  0  0
    3.9211    1.4994   -8.0860 F   0  0  0  0  0  0  0  0  0  0  0  0
   -4.3584   -1.0760   -5.5900 O   0  0  0  0  0  0  0  0  0  0  0  0
   -5.6597   -0.5238   -5.8108 C   0  0  0  0  0  0  0  0  0  0  0  0
   -6.3213   -1.3796   -5.9379 H   0  0  0  0  0  0  0  0  0  0  0  0
   -5.6772    0.0910   -6.7168 H   0  0  0  0  0  0  0  0  0  0  0  0
   -5.9879    0.0677   -4.9489 H   0  0  0  0  0  0  0  0  0  0  0  0
  1  2  2  0  0  0  0
  2  3  1  0  0  0  0
  2  8  1  0  0  0  0
  3 11  1  0  0  0  0
  4  9  1  0  0  0  0
  4  3  2  0  0  0  0
  5  4  1  0  0  0  0
  6  5  2  0  0  0  0
  6  1  1  0  0  0  0
  7  1  1  0  0  0  0
 10  5  1  0  0  0  0
 11 12  1  0  0  0  0
 13 17  1  0  0  0  0
 14 13  1  0  0  0  0
 14 19  1  0  0  0  0
 14 18  1  0  0  0  0
 15 13  2  0  0  0  0
 16 13  2  0  0  0  0
 20 14  1  0  0  0  0
 21  6  1  0  0  0  0
 22 21  1  0  0  0  0
 22 25  1  0  0  0  0
 23 22  1  0  0  0  0
 24 22  1  0  0  0  0
M  RAD  3  11   2  12   3  17   2
M  END
