Coordinates from ORCA-job p-CH3O-Ph-N2-X-OTf-B3LYPG-6-31G_dp-scan-d09-49-n400
 OpenBabel08281821483D

 25 24  0  0  0  0  0  0  0  0999 V2000
   -2.0560   -0.8957   -5.2115 C   0  0  0  0  0  0  0  0  0  0  0  0
   -0.9035   -0.1573   -5.0652 C   0  0  0  0  0  0  0  0  0  0  0  0
   -1.0273    1.2487   -5.0779 C   0  0  0  0  0  0  0  0  0  0  0  0
   -2.2578    1.9095   -5.2435 C   0  0  0  0  0  0  0  0  0  0  0  0
   -3.4010    1.1475   -5.3985 C   0  0  0  0  0  0  0  0  0  0  0  0
   -3.3072   -0.2620   -5.3832 C   0  0  0  0  0  0  0  0  0  0  0  0
   -2.0223   -1.9794   -5.2157 H   0  0  0  0  0  0  0  0  0  0  0  0
    0.0907   -0.5915   -4.9626 H   0  0  0  0  0  0  0  0  0  0  0  0
   -2.3044    2.9931   -5.2572 H   0  0  0  0  0  0  0  0  0  0  0  0
   -4.3529    1.6436   -5.5341 H   0  0  0  0  0  0  0  0  0  0  0  0
    0.0854    2.0320   -4.9078 N   0  0  0  0  0  0  0  0  0  0  0  0
    0.9191    2.7398   -4.6924 N   0  0  0  0  0  0  0  0  0  0  0  0
    2.2210    0.1231   -6.6430 S   0  0  0  0  0  0  0  0  0  0  0  0
    3.7157    1.2261   -6.6469 C   0  0  0  0  0  0  0  0  0  0  0  0
    2.5704   -0.9969   -7.5238 O   0  0  0  0  0  0  0  0  0  0  0  0
    1.1373    1.0295   -7.1224 O   0  0  0  0  0  0  0  0  0  0  0  0
    2.0690   -0.2001   -5.1906 O   0  0  0  0  0  0  0  0  0  0  0  0
    3.4865    2.3169   -5.8786 F   0  0  0  0  0  0  0  0  0  0  0  0
    4.7889    0.5946   -6.1550 F   0  0  0  0  0  0  0  0  0  0  0  0
    4.0006    1.6495   -7.8856 F   0  0  0  0  0  0  0  0  0  0  0  0
   -4.3536   -1.0851   -5.5231 O   0  0  0  0  0  0  0  0  0  0  0  0
   -5.6628   -0.5444   -5.7243 C   0  0  0  0  0  0  0  0  0  0  0  0
   -6.3235   -1.4060   -5.8110 H   0  0  0  0  0  0  0  0  0  0  0  0
   -5.7071    0.0458   -6.6456 H   0  0  0  0  0  0  0  0  0  0  0  0
   -5.9711    0.0690   -4.8704 H   0  0  0  0  0  0  0  0  0  0  0  0
  1  2  2  0  0  0  0
  2  8  1  0  0  0  0
  3  2  1  0  0  0  0
  3 11  1  0  0  0  0
  4  3  2  0  0  0  0
  5  6  2  0  0  0  0
  5  4  1  0  0  0  0
  6  1  1  0  0  0  0
  7  1  1  0  0  0  0
  9  4  1  0  0  0  0
 10  5  1  0  0  0  0
 11 12  1  0  0  0  0
 13 17  1  0  0  0  0
 14 13  1  0  0  0  0
 14 19  1  0  0  0  0
 14 18  1  0  0  0  0
 15 13  2  0  0  0  0
 16 13  2  0  0  0  0
 20 14  1  0  0  0  0
 21  6  1  0  0  0  0
 22 21  1  0  0  0  0
 22 25  1  0  0  0  0
 23 22  1  0  0  0  0
 24 22  1  0  0  0  0
M  RAD  3  11   2  12   3  17   2
M  END
