Coordinates from ORCA-job p-CH3O-Ph-N2-X-OTf-B3LYPG-6-31G_dp-scan-d09-49-n400
 OpenBabel08281821483D

 25 25  0  0  0  0  0  0  0  0999 V2000
   -1.9233   -0.8704   -4.6085 C   0  0  0  0  0  0  0  0  0  0  0  0
   -0.6894   -0.2548   -4.7543 C   0  0  0  0  0  0  0  0  0  0  0  0
   -0.5790    0.9479   -5.4683 C   0  0  0  0  0  0  0  0  0  0  0  0
   -1.7190    1.5178   -6.0393 C   0  0  0  0  0  0  0  0  0  0  0  0
   -2.9610    0.8982   -5.9105 C   0  0  0  0  0  0  0  0  0  0  0  0
   -3.0680   -0.2997   -5.1887 C   0  0  0  0  0  0  0  0  0  0  0  0
   -2.0290   -1.7992   -4.0587 H   0  0  0  0  0  0  0  0  0  0  0  0
    0.2002   -0.7012   -4.3228 H   0  0  0  0  0  0  0  0  0  0  0  0
   -1.6308    2.4481   -6.5897 H   0  0  0  0  0  0  0  0  0  0  0  0
   -3.8306    1.3552   -6.3659 H   0  0  0  0  0  0  0  0  0  0  0  0
    0.6869    1.6011   -5.5584 N   0  0  0  0  0  0  0  0  0  0  0  0
    1.1421    2.3017   -4.2100 N   0  0  0  0  0  0  0  0  0  0  0  0
    1.5902    1.6129   -6.9846 S   0  0  0  0  0  0  0  0  0  0  0  0
    2.7396    0.1659   -6.6982 C   0  0  0  0  0  0  0  0  0  0  0  0
    0.7424    1.2539   -8.1149 O   0  0  0  0  0  0  0  0  0  0  0  0
    2.4288    2.8042   -6.9778 O   0  0  0  0  0  0  0  0  0  0  0  0
    2.1787    2.6991   -4.1828 O   0  0  0  0  0  0  0  0  0  0  0  0
    2.0300   -0.9609   -6.5895 F   0  0  0  0  0  0  0  0  0  0  0  0
    3.5884    0.0630   -7.7177 F   0  0  0  0  0  0  0  0  0  0  0  0
    3.4207    0.3647   -5.5646 F   0  0  0  0  0  0  0  0  0  0  0  0
   -4.2272   -0.9824   -4.9943 O   0  0  0  0  0  0  0  0  0  0  0  0
   -5.4232   -0.4662   -5.5636 C   0  0  0  0  0  0  0  0  0  0  0  0
   -6.2129   -1.1653   -5.2852 H   0  0  0  0  0  0  0  0  0  0  0  0
   -5.3566   -0.4103   -6.6572 H   0  0  0  0  0  0  0  0  0  0  0  0
   -5.6636    0.5269   -5.1645 H   0  0  0  0  0  0  0  0  0  0  0  0
  1  7  1  0  0  0  0
  2  1  1  0  0  0  0
  2  8  1  0  0  0  0
  3  2  2  0  0  0  0
  4  5  2  0  0  0  0
  4  3  1  0  0  0  0
  5  6  1  0  0  0  0
  6 21  1  0  0  0  0
  6  1  2  0  0  0  0
  9  4  1  0  0  0  0
 10  5  1  0  0  0  0
 11  3  1  0  0  0  0
 11 12  1  0  0  0  0
 12 17  2  0  0  0  0
 13 16  2  0  0  0  0
 13 14  1  0  0  0  0
 13 11  1  0  0  0  0
 14 18  1  0  0  0  0
 14 20  1  0  0  0  0
 15 13  2  0  0  0  0
 19 14  1  0  0  0  0
 22 23  1  0  0  0  0
 22 25  1  0  0  0  0
 22 21  1  0  0  0  0
 24 22  1  0  0  0  0
M  END
