Coordinates from ORCA-job p-CH3O-Ph-N2-X-OTf-B3LYPG-6-31G_dp-scan-d09-49-n400
 OpenBabel08281821483D

 25 24  0  0  0  0  0  0  0  0999 V2000
   -2.0061   -0.8245   -5.2977 C   0  0  0  0  0  0  0  0  0  0  0  0
   -0.8806   -0.0362   -5.2071 C   0  0  0  0  0  0  0  0  0  0  0  0
   -1.0724    1.3626   -5.1984 C   0  0  0  0  0  0  0  0  0  0  0  0
   -2.3403    1.9684   -5.2864 C   0  0  0  0  0  0  0  0  0  0  0  0
   -3.4532    1.1555   -5.3871 C   0  0  0  0  0  0  0  0  0  0  0  0
   -3.2926   -0.2490   -5.3934 C   0  0  0  0  0  0  0  0  0  0  0  0
   -1.9219   -1.9055   -5.3157 H   0  0  0  0  0  0  0  0  0  0  0  0
    0.1351   -0.4428   -5.1698 H   0  0  0  0  0  0  0  0  0  0  0  0
   -2.4374    3.0488   -5.2841 H   0  0  0  0  0  0  0  0  0  0  0  0
   -4.4335    1.6074   -5.4640 H   0  0  0  0  0  0  0  0  0  0  0  0
    0.0107    2.1948   -5.0839 N   0  0  0  0  0  0  0  0  0  0  0  0
    0.8214    2.9426   -4.9168 N   0  0  0  0  0  0  0  0  0  0  0  0
    2.2708    0.0783   -6.8120 S   0  0  0  0  0  0  0  0  0  0  0  0
    3.7301    1.1415   -6.3741 C   0  0  0  0  0  0  0  0  0  0  0  0
    2.7190   -0.7221   -7.9557 O   0  0  0  0  0  0  0  0  0  0  0  0
    1.2094    1.0909   -7.0954 O   0  0  0  0  0  0  0  0  0  0  0  0
    2.0176   -0.6605   -5.5406 O   0  0  0  0  0  0  0  0  0  0  0  0
    3.4123    1.9621   -5.3407 F   0  0  0  0  0  0  0  0  0  0  0  0
    4.7807    0.4018   -6.0002 F   0  0  0  0  0  0  0  0  0  0  0  0
    4.0963    1.9136   -7.4064 F   0  0  0  0  0  0  0  0  0  0  0  0
   -4.3058   -1.1181   -5.4865 O   0  0  0  0  0  0  0  0  0  0  0  0
   -5.6478   -0.6385   -5.6139 C   0  0  0  0  0  0  0  0  0  0  0  0
   -6.2701   -1.5297   -5.6818 H   0  0  0  0  0  0  0  0  0  0  0  0
   -5.7657   -0.0383   -6.5222 H   0  0  0  0  0  0  0  0  0  0  0  0
   -5.9417   -0.0526   -4.7361 H   0  0  0  0  0  0  0  0  0  0  0  0
  1  2  2  0  0  0  0
  2  3  1  0  0  0  0
  2  8  1  0  0  0  0
  3 11  1  0  0  0  0
  4  9  1  0  0  0  0
  4  3  2  0  0  0  0
  5  4  1  0  0  0  0
  6  5  2  0  0  0  0
  6  1  1  0  0  0  0
  7  1  1  0  0  0  0
 10  5  1  0  0  0  0
 11 12  1  0  0  0  0
 13 14  1  0  0  0  0
 13 17  1  0  0  0  0
 14 19  1  0  0  0  0
 14 18  1  0  0  0  0
 15 13  2  0  0  0  0
 16 13  2  0  0  0  0
 20 14  1  0  0  0  0
 21  6  1  0  0  0  0
 22 21  1  0  0  0  0
 22 25  1  0  0  0  0
 23 22  1  0  0  0  0
 24 22  1  0  0  0  0
M  RAD  3  11   2  12   3  17   2
M  END
