Coordinates from ORCA-job p-CH3O-Ph-N2-X-OTf-B3LYPG-6-31G_dp-scan-d09-49-n400
 OpenBabel08281821483D

 25 25  0  0  0  0  0  0  0  0999 V2000
   -2.1338   -1.1886   -5.3359 C   0  0  0  0  0  0  0  0  0  0  0  0
   -0.8600   -0.6477   -5.3614 C   0  0  0  0  0  0  0  0  0  0  0  0
   -0.7052    0.7410   -5.4713 C   0  0  0  0  0  0  0  0  0  0  0  0
   -1.8192    1.5776   -5.5626 C   0  0  0  0  0  0  0  0  0  0  0  0
   -3.1015    1.0355   -5.5255 C   0  0  0  0  0  0  0  0  0  0  0  0
   -3.2636   -0.3538   -5.4152 C   0  0  0  0  0  0  0  0  0  0  0  0
   -2.2871   -2.2587   -5.2489 H   0  0  0  0  0  0  0  0  0  0  0  0
    0.0116   -1.2876   -5.2975 H   0  0  0  0  0  0  0  0  0  0  0  0
   -1.6782    2.6495   -5.6549 H   0  0  0  0  0  0  0  0  0  0  0  0
   -3.9568    1.6958   -5.5914 H   0  0  0  0  0  0  0  0  0  0  0  0
    0.6042    1.3256   -5.4769 N   0  0  0  0  0  0  0  0  0  0  0  0
    0.8877    2.2638   -4.6477 N   0  0  0  0  0  0  0  0  0  0  0  0
    1.7081    1.0598   -6.9587 S   0  0  0  0  0  0  0  0  0  0  0  0
    3.4361    0.6957   -6.2400 C   0  0  0  0  0  0  0  0  0  0  0  0
    1.2305   -0.2252   -7.4595 O   0  0  0  0  0  0  0  0  0  0  0  0
    1.7281    2.2475   -7.7977 O   0  0  0  0  0  0  0  0  0  0  0  0
    2.1898    2.8563   -4.9920 O   0  0  0  0  0  0  0  0  0  0  0  0
    3.3121    0.2730   -4.9882 F   0  0  0  0  0  0  0  0  0  0  0  0
    3.9282   -0.2871   -6.9953 F   0  0  0  0  0  0  0  0  0  0  0  0
    4.2172    1.7500   -6.3246 F   0  0  0  0  0  0  0  0  0  0  0  0
   -4.4607   -0.9871   -5.3782 O   0  0  0  0  0  0  0  0  0  0  0  0
   -5.6494   -0.2078   -5.4490 C   0  0  0  0  0  0  0  0  0  0  0  0
   -6.4745   -0.9188   -5.4045 H   0  0  0  0  0  0  0  0  0  0  0  0
   -5.7052    0.3538   -6.3893 H   0  0  0  0  0  0  0  0  0  0  0  0
   -5.7239    0.4875   -4.6039 H   0  0  0  0  0  0  0  0  0  0  0  0
  1  7  1  0  0  0  0
  2  1  1  0  0  0  0
  2  8  1  0  0  0  0
  3  2  2  0  0  0  0
  4  5  2  0  0  0  0
  4  3  1  0  0  0  0
  5  6  1  0  0  0  0
  6 21  1  0  0  0  0
  6  1  2  0  0  0  0
  9  4  1  0  0  0  0
 10  5  1  0  0  0  0
 11  3  1  0  0  0  0
 11 12  1  0  0  0  0
 13 14  1  0  0  0  0
 13 11  1  0  0  0  0
 14 18  1  0  0  0  0
 15 13  2  0  0  0  0
 16 13  2  0  0  0  0
 17 12  1  0  0  0  0
 19 14  1  0  0  0  0
 20 14  1  0  0  0  0
 22 23  1  0  0  0  0
 22 21  1  0  0  0  0
 22 25  1  0  0  0  0
 24 22  1  0  0  0  0
M  RAD  2  12   2  17   2
M  END
