Coordinates from ORCA-job p-CH3O-Ph-N2-X-OTf-B3LYPG-6-31G_dp-scan-d09-49-n400
 OpenBabel08281821483D

 25 24  0  0  0  0  0  0  0  0999 V2000
   -2.0693   -0.9056   -5.2165 C   0  0  0  0  0  0  0  0  0  0  0  0
   -0.9209   -0.1750   -5.0148 C   0  0  0  0  0  0  0  0  0  0  0  0
   -1.0410    1.2328   -4.9813 C   0  0  0  0  0  0  0  0  0  0  0  0
   -2.2633    1.9015   -5.1571 C   0  0  0  0  0  0  0  0  0  0  0  0
   -3.4039    1.1484   -5.3698 C   0  0  0  0  0  0  0  0  0  0  0  0
   -3.3136   -0.2607   -5.4004 C   0  0  0  0  0  0  0  0  0  0  0  0
   -2.0380   -1.9885   -5.2584 H   0  0  0  0  0  0  0  0  0  0  0  0
    0.0640   -0.6181   -4.8933 H   0  0  0  0  0  0  0  0  0  0  0  0
   -2.3065    2.9850   -5.1339 H   0  0  0  0  0  0  0  0  0  0  0  0
   -4.3511    1.6510   -5.5144 H   0  0  0  0  0  0  0  0  0  0  0  0
    0.0862    1.9773   -4.7640 N   0  0  0  0  0  0  0  0  0  0  0  0
    1.0323    2.5241   -4.5431 N   0  0  0  0  0  0  0  0  0  0  0  0
    2.2286    0.1578   -6.5435 S   0  0  0  0  0  0  0  0  0  0  0  0
    3.7022    1.2597   -6.7947 C   0  0  0  0  0  0  0  0  0  0  0  0
    2.5587   -1.0921   -7.2391 O   0  0  0  0  0  0  0  0  0  0  0  0
    1.1046    0.9561   -7.1053 O   0  0  0  0  0  0  0  0  0  0  0  0
    2.1481    0.0682   -5.0494 O   0  0  0  0  0  0  0  0  0  0  0  0
    3.4960    2.4522   -6.1930 F   0  0  0  0  0  0  0  0  0  0  0  0
    4.8080    0.7164   -6.2698 F   0  0  0  0  0  0  0  0  0  0  0  0
    3.9163    1.4867   -8.0981 F   0  0  0  0  0  0  0  0  0  0  0  0
   -4.3573   -1.0758   -5.5967 O   0  0  0  0  0  0  0  0  0  0  0  0
   -5.6595   -0.5252   -5.8158 C   0  0  0  0  0  0  0  0  0  0  0  0
   -6.3194   -1.3816   -5.9467 H   0  0  0  0  0  0  0  0  0  0  0  0
   -5.6777    0.0934   -6.7193 H   0  0  0  0  0  0  0  0  0  0  0  0
   -5.9892    0.0622   -4.9517 H   0  0  0  0  0  0  0  0  0  0  0  0
  1  2  2  0  0  0  0
  2  3  1  0  0  0  0
  2  8  1  0  0  0  0
  3 11  1  0  0  0  0
  4  9  1  0  0  0  0
  4  3  2  0  0  0  0
  5  4  1  0  0  0  0
  6  5  2  0  0  0  0
  6  1  1  0  0  0  0
  7  1  1  0  0  0  0
 10  5  1  0  0  0  0
 11 12  1  0  0  0  0
 13 17  1  0  0  0  0
 14 13  1  0  0  0  0
 14 19  1  0  0  0  0
 14 18  1  0  0  0  0
 15 13  2  0  0  0  0
 16 13  2  0  0  0  0
 20 14  1  0  0  0  0
 21  6  1  0  0  0  0
 22 21  1  0  0  0  0
 22 25  1  0  0  0  0
 23 22  1  0  0  0  0
 24 22  1  0  0  0  0
M  RAD  3  11   2  12   3  17   2
M  END
