Coordinates from ORCA-job p-CH3O-Ph-N2-X-OTf-B3LYPG-6-31G_dp-scan-d09-49-n400
 OpenBabel08281821483D

 25 24  0  0  0  0  0  0  0  0999 V2000
   -2.0346   -0.8562   -5.2758 C   0  0  0  0  0  0  0  0  0  0  0  0
   -0.8948   -0.0917   -5.1649 C   0  0  0  0  0  0  0  0  0  0  0  0
   -1.0558    1.3108   -5.1553 C   0  0  0  0  0  0  0  0  0  0  0  0
   -2.3085    1.9431   -5.2642 C   0  0  0  0  0  0  0  0  0  0  0  0
   -3.4370    1.1542   -5.3857 C   0  0  0  0  0  0  0  0  0  0  0  0
   -3.3068   -0.2529   -5.3918 C   0  0  0  0  0  0  0  0  0  0  0  0
   -1.9738   -1.9387   -5.2946 H   0  0  0  0  0  0  0  0  0  0  0  0
    0.1128   -0.5107   -5.1089 H   0  0  0  0  0  0  0  0  0  0  0  0
   -2.3827    3.0253   -5.2608 H   0  0  0  0  0  0  0  0  0  0  0  0
   -4.4057    1.6274   -5.4784 H   0  0  0  0  0  0  0  0  0  0  0  0
    0.0420    2.1205   -5.0161 N   0  0  0  0  0  0  0  0  0  0  0  0
    0.8605    2.8526   -4.8212 N   0  0  0  0  0  0  0  0  0  0  0  0
    2.2605    0.0850   -6.7262 S   0  0  0  0  0  0  0  0  0  0  0  0
    3.7407    1.1842   -6.4984 C   0  0  0  0  0  0  0  0  0  0  0  0
    2.6550   -0.8669   -7.7698 O   0  0  0  0  0  0  0  0  0  0  0  0
    1.1865    1.0558   -7.0940 O   0  0  0  0  0  0  0  0  0  0  0  0
    2.0615   -0.4738   -5.3557 O   0  0  0  0  0  0  0  0  0  0  0  0
    3.4812    2.1242   -5.5571 F   0  0  0  0  0  0  0  0  0  0  0  0
    4.8100    0.4862   -6.0967 F   0  0  0  0  0  0  0  0  0  0  0  0
    4.0493    1.8213   -7.6361 F   0  0  0  0  0  0  0  0  0  0  0  0
   -4.3367   -1.1003   -5.5032 O   0  0  0  0  0  0  0  0  0  0  0  0
   -5.6658   -0.5916   -5.6504 C   0  0  0  0  0  0  0  0  0  0  0  0
   -6.3065   -1.4690   -5.7268 H   0  0  0  0  0  0  0  0  0  0  0  0
   -5.7576    0.0102   -6.5607 H   0  0  0  0  0  0  0  0  0  0  0  0
   -5.9596    0.0014   -4.7772 H   0  0  0  0  0  0  0  0  0  0  0  0
  1  2  2  0  0  0  0
  2  3  1  0  0  0  0
  2  8  1  0  0  0  0
  3 11  1  0  0  0  0
  4  9  1  0  0  0  0
  4  3  2  0  0  0  0
  5  4  1  0  0  0  0
  6  5  2  0  0  0  0
  6  1  1  0  0  0  0
  7  1  1  0  0  0  0
 10  5  1  0  0  0  0
 11 12  1  0  0  0  0
 13 14  1  0  0  0  0
 13 17  1  0  0  0  0
 14 19  1  0  0  0  0
 14 18  1  0  0  0  0
 15 13  2  0  0  0  0
 16 13  2  0  0  0  0
 20 14  1  0  0  0  0
 21  6  1  0  0  0  0
 22 21  1  0  0  0  0
 22 25  1  0  0  0  0
 23 22  1  0  0  0  0
 24 22  1  0  0  0  0
M  RAD  3  11   2  12   3  17   2
M  END
