Coordinates from ORCA-job p-CH3O-Ph-N2-X-OTf-B3LYPG-6-31G_dp-scan-d09-49-n400
 OpenBabel08281821483D

 25 24  0  0  0  0  0  0  0  0999 V2000
   -2.0472   -0.8088   -4.3040 C   0  0  0  0  0  0  0  0  0  0  0  0
   -0.7661   -0.3050   -4.4654 C   0  0  0  0  0  0  0  0  0  0  0  0
   -0.4963    0.7178   -5.3978 C   0  0  0  0  0  0  0  0  0  0  0  0
   -1.5646    1.2197   -6.1601 C   0  0  0  0  0  0  0  0  0  0  0  0
   -2.8539    0.7067   -6.0124 C   0  0  0  0  0  0  0  0  0  0  0  0
   -3.1046   -0.3076   -5.0799 C   0  0  0  0  0  0  0  0  0  0  0  0
   -2.2568   -1.5998   -3.5909 H   0  0  0  0  0  0  0  0  0  0  0  0
    0.0575   -0.7014   -3.8798 H   0  0  0  0  0  0  0  0  0  0  0  0
   -1.3803    2.0030   -6.8856 H   0  0  0  0  0  0  0  0  0  0  0  0
   -3.6522    1.1111   -6.6230 H   0  0  0  0  0  0  0  0  0  0  0  0
    0.8185    1.2312   -5.4233 N   0  0  0  0  0  0  0  0  0  0  0  0
    1.2269    2.9906   -4.3271 N   0  0  0  0  0  0  0  0  0  0  0  0
    1.5808    1.6435   -6.7877 S   0  0  0  0  0  0  0  0  0  0  0  0
    2.7096    0.1869   -7.0942 C   0  0  0  0  0  0  0  0  0  0  0  0
    0.7736    1.7544   -8.0072 O   0  0  0  0  0  0  0  0  0  0  0  0
    2.4970    2.7492   -6.4164 O   0  0  0  0  0  0  0  0  0  0  0  0
    1.8837    2.8117   -3.6933 O   0  0  0  0  0  0  0  0  0  0  0  0
    1.9798   -0.9256   -7.2307 F   0  0  0  0  0  0  0  0  0  0  0  0
    3.4202    0.3861   -8.2076 F   0  0  0  0  0  0  0  0  0  0  0  0
    3.5507    0.0312   -6.0639 F   0  0  0  0  0  0  0  0  0  0  0  0
   -4.3271   -0.8686   -4.8489 O   0  0  0  0  0  0  0  0  0  0  0  0
   -5.4282   -0.4214   -5.6238 C   0  0  0  0  0  0  0  0  0  0  0  0
   -6.2894   -0.9989   -5.2851 H   0  0  0  0  0  0  0  0  0  0  0  0
   -5.2698   -0.6031   -6.6946 H   0  0  0  0  0  0  0  0  0  0  0  0
   -5.6276    0.6469   -5.4673 H   0  0  0  0  0  0  0  0  0  0  0  0
  1  7  1  0  0  0  0
  2  1  1  0  0  0  0
  2  8  1  0  0  0  0
  3  2  2  0  0  0  0
  4  5  2  0  0  0  0
  4  3  1  0  0  0  0
  5  6  1  0  0  0  0
  6 21  1  0  0  0  0
  6  1  2  0  0  0  0
  9  4  1  0  0  0  0
 10  5  1  0  0  0  0
 11  3  1  0  0  0  0
 12 17  2  0  0  0  0
 13 16  2  0  0  0  0
 13 11  1  0  0  0  0
 14 13  1  0  0  0  0
 14 20  1  0  0  0  0
 15 13  2  0  0  0  0
 18 14  1  0  0  0  0
 19 14  1  0  0  0  0
 22 25  1  0  0  0  0
 22 23  1  0  0  0  0
 22 21  1  0  0  0  0
 24 22  1  0  0  0  0
M  RAD  2  11   2  12   2
M  END
