Coordinates from ORCA-job p-CH3O-Ph-N2-X-OTf-B3LYPG-6-31G_dp-scan-d09-49-n400
 OpenBabel08281821483D

 25 24  0  0  0  0  0  0  0  0999 V2000
   -3.0752   -1.5339   -5.5651 C   0  0  0  0  0  0  0  0  0  0  0  0
   -1.7471   -1.3056   -5.8695 C   0  0  0  0  0  0  0  0  0  0  0  0
   -1.2616    0.0120   -5.8823 C   0  0  0  0  0  0  0  0  0  0  0  0
   -2.1025    1.0987   -5.5964 C   0  0  0  0  0  0  0  0  0  0  0  0
   -3.4362    0.8673   -5.2945 C   0  0  0  0  0  0  0  0  0  0  0  0
   -3.9310   -0.4521   -5.2755 C   0  0  0  0  0  0  0  0  0  0  0  0
   -3.4856   -2.5371   -5.5446 H   0  0  0  0  0  0  0  0  0  0  0  0
   -1.0728   -2.1231   -6.0985 H   0  0  0  0  0  0  0  0  0  0  0  0
   -1.7069    2.1088   -5.6154 H   0  0  0  0  0  0  0  0  0  0  0  0
   -4.0827    1.7078   -5.0759 H   0  0  0  0  0  0  0  0  0  0  0  0
    0.0872    0.2069   -6.1929 N   0  0  0  0  0  0  0  0  0  0  0  0
    0.8431    1.0766   -6.2896 N   0  0  0  0  0  0  0  0  0  0  0  0
    3.5127    1.2756   -7.3163 S   0  0  0  0  0  0  0  0  0  0  0  0
    4.2425    1.8865   -5.7189 C   0  0  0  0  0  0  0  0  0  0  0  0
    4.5954    0.5839   -8.0114 O   0  0  0  0  0  0  0  0  0  0  0  0
    2.8706    2.4435   -7.9183 O   0  0  0  0  0  0  0  0  0  0  0  0
    2.4780    0.2403   -6.7871 O   0  0  0  0  0  0  0  0  0  0  0  0
    3.2774    2.4030   -4.9402 F   0  0  0  0  0  0  0  0  0  0  0  0
    4.8335    0.8862   -5.0569 F   0  0  0  0  0  0  0  0  0  0  0  0
    5.1485    2.8377   -5.9663 F   0  0  0  0  0  0  0  0  0  0  0  0
   -5.2049   -0.7813   -4.9926 O   0  0  0  0  0  0  0  0  0  0  0  0
   -6.1455    0.2522   -4.6985 C   0  0  0  0  0  0  0  0  0  0  0  0
   -7.0898   -0.2559   -4.5060 H   0  0  0  0  0  0  0  0  0  0  0  0
   -6.2646    0.9336   -5.5487 H   0  0  0  0  0  0  0  0  0  0  0  0
   -5.8483    0.8184   -3.8086 H   0  0  0  0  0  0  0  0  0  0  0  0
  1  7  1  0  0  0  0
  1  6  2  0  0  0  0
  2  1  1  0  0  0  0
  3  2  2  0  0  0  0
  3  4  1  0  0  0  0
  4  5  2  0  0  0  0
  5  6  1  0  0  0  0
  5 10  1  0  0  0  0
  6 21  1  0  0  0  0
  8  2  1  0  0  0  0
  9  4  1  0  0  0  0
 11  3  1  0  0  0  0
 12 11  2  0  0  0  0
 13 17  1  0  0  0  0
 13 14  1  0  0  0  0
 14 19  1  0  0  0  0
 14 18  1  0  0  0  0
 15 13  2  0  0  0  0
 16 13  2  0  0  0  0
 20 14  1  0  0  0  0
 21 22  1  0  0  0  0
 22 23  1  0  0  0  0
 22 25  1  0  0  0  0
 24 22  1  0  0  0  0
M  RAD  2  12   2  17   2
M  END
