Coordinates from ORCA-job p-CH3O-Ph-N2-X-OTf-B3LYPG-6-31G_dp-scan-d09-49-n400
 OpenBabel08281821483D

 25 24  0  0  0  0  0  0  0  0999 V2000
   -1.9661   -0.7825   -5.4263 C   0  0  0  0  0  0  0  0  0  0  0  0
   -0.8587    0.0370   -5.4056 C   0  0  0  0  0  0  0  0  0  0  0  0
   -1.0900    1.4293   -5.3594 C   0  0  0  0  0  0  0  0  0  0  0  0
   -2.3805    1.9958   -5.3406 C   0  0  0  0  0  0  0  0  0  0  0  0
   -3.4736    1.1522   -5.3729 C   0  0  0  0  0  0  0  0  0  0  0  0
   -3.2726   -0.2467   -5.4162 C   0  0  0  0  0  0  0  0  0  0  0  0
   -1.8496   -1.8598   -5.4689 H   0  0  0  0  0  0  0  0  0  0  0  0
    0.1605   -0.3617   -5.4487 H   0  0  0  0  0  0  0  0  0  0  0  0
   -2.5088    3.0726   -5.3099 H   0  0  0  0  0  0  0  0  0  0  0  0
   -4.4695    1.5756   -5.3672 H   0  0  0  0  0  0  0  0  0  0  0  0
   -0.0351    2.3042   -5.3057 N   0  0  0  0  0  0  0  0  0  0  0  0
    0.7380    3.1000   -5.1868 N   0  0  0  0  0  0  0  0  0  0  0  0
    2.3432    0.0978   -6.9536 S   0  0  0  0  0  0  0  0  0  0  0  0
    3.6748    1.0597   -6.0837 C   0  0  0  0  0  0  0  0  0  0  0  0
    2.9858   -0.4203   -8.1642 O   0  0  0  0  0  0  0  0  0  0  0  0
    1.2967    1.1451   -7.1646 O   0  0  0  0  0  0  0  0  0  0  0  0
    1.9397   -0.9066   -5.9295 O   0  0  0  0  0  0  0  0  0  0  0  0
    3.1580    1.6710   -4.9843 F   0  0  0  0  0  0  0  0  0  0  0  0
    4.6734    0.2682   -5.6775 F   0  0  0  0  0  0  0  0  0  0  0  0
    4.1810    2.0156   -6.8749 F   0  0  0  0  0  0  0  0  0  0  0  0
   -4.2641   -1.1444   -5.4500 O   0  0  0  0  0  0  0  0  0  0  0  0
   -5.6252   -0.7042   -5.4662 C   0  0  0  0  0  0  0  0  0  0  0  0
   -6.2246   -1.6125   -5.5067 H   0  0  0  0  0  0  0  0  0  0  0  0
   -5.8292   -0.0904   -6.3500 H   0  0  0  0  0  0  0  0  0  0  0  0
   -5.8693   -0.1447   -4.5565 H   0  0  0  0  0  0  0  0  0  0  0  0
  1  6  2  0  0  0  0
  1  2  1  0  0  0  0
  2  3  2  0  0  0  0
  3  4  1  0  0  0  0
  3 11  1  0  0  0  0
  4  9  1  0  0  0  0
  5 10  1  0  0  0  0
  5  4  2  0  0  0  0
  6  5  1  0  0  0  0
  7  1  1  0  0  0  0
  8  2  1  0  0  0  0
 11 12  1  0  0  0  0
 13 14  1  0  0  0  0
 13 17  1  0  0  0  0
 14 19  1  0  0  0  0
 14 18  1  0  0  0  0
 15 13  2  0  0  0  0
 16 13  2  0  0  0  0
 20 14  1  0  0  0  0
 21  6  1  0  0  0  0
 22 21  1  0  0  0  0
 22 25  1  0  0  0  0
 23 22  1  0  0  0  0
 24 22  1  0  0  0  0
M  RAD  3  11   2  12   3  17   2
M  END
