Coordinates from ORCA-job p-CH3O-Ph-N2-X-OTf-B3LYPG-6-31G_dp-scan-d09-49-n400
 OpenBabel08281821483D

 25 24  0  0  0  0  0  0  0  0999 V2000
   -1.9275   -0.5960   -6.3093 C   0  0  0  0  0  0  0  0  0  0  0  0
   -0.9250    0.2966   -6.6236 C   0  0  0  0  0  0  0  0  0  0  0  0
   -1.1024    1.6402   -6.2306 C   0  0  0  0  0  0  0  0  0  0  0  0
   -2.2499    2.0844   -5.5377 C   0  0  0  0  0  0  0  0  0  0  0  0
   -3.2394    1.1718   -5.2319 C   0  0  0  0  0  0  0  0  0  0  0  0
   -3.0847   -0.1804   -5.6179 C   0  0  0  0  0  0  0  0  0  0  0  0
   -1.8293   -1.6411   -6.5791 H   0  0  0  0  0  0  0  0  0  0  0  0
   -0.0154   -0.0192   -7.1245 H   0  0  0  0  0  0  0  0  0  0  0  0
   -2.3463    3.1252   -5.2485 H   0  0  0  0  0  0  0  0  0  0  0  0
   -4.1203    1.5059   -4.6996 H   0  0  0  0  0  0  0  0  0  0  0  0
   -0.1659    2.6043   -6.5137 N   0  0  0  0  0  0  0  0  0  0  0  0
    0.4572    3.5175   -6.6750 N   0  0  0  0  0  0  0  0  0  0  0  0
    2.5964    0.1494   -6.9082 S   0  0  0  0  0  0  0  0  0  0  0  0
    2.8449    0.6465   -5.1334 C   0  0  0  0  0  0  0  0  0  0  0  0
    3.9472    0.0489   -7.4650 O   0  0  0  0  0  0  0  0  0  0  0  0
    1.7747    1.3011   -7.4134 O   0  0  0  0  0  0  0  0  0  0  0  0
    1.8028   -1.0985   -6.8019 O   0  0  0  0  0  0  0  0  0  0  0  0
    1.6389    0.9056   -4.5566 F   0  0  0  0  0  0  0  0  0  0  0  0
    3.4384   -0.3168   -4.4213 F   0  0  0  0  0  0  0  0  0  0  0  0
    3.5799    1.7644   -5.0368 F   0  0  0  0  0  0  0  0  0  0  0  0
   -3.9848   -1.1384   -5.3679 O   0  0  0  0  0  0  0  0  0  0  0  0
   -5.1829   -0.8227   -4.6522 C   0  0  0  0  0  0  0  0  0  0  0  0
   -5.7314   -1.7608   -4.5749 H   0  0  0  0  0  0  0  0  0  0  0  0
   -5.7862   -0.0894   -5.1984 H   0  0  0  0  0  0  0  0  0  0  0  0
   -4.9548   -0.4484   -3.6487 H   0  0  0  0  0  0  0  0  0  0  0  0
  1  6  1  0  0  0  0
  2  1  2  0  0  0  0
  2  3  1  0  0  0  0
  3  4  2  0  0  0  0
  4  9  1  0  0  0  0
  4  5  1  0  0  0  0
  5 10  1  0  0  0  0
  6 21  1  0  0  0  0
  6  5  2  0  0  0  0
  7  1  1  0  0  0  0
  8  2  1  0  0  0  0
 11  3  1  0  0  0  0
 12 11  1  0  0  0  0
 13 17  1  0  0  0  0
 13 14  1  0  0  0  0
 14 20  1  0  0  0  0
 14 18  1  0  0  0  0
 14 19  1  0  0  0  0
 15 13  2  0  0  0  0
 16 13  2  0  0  0  0
 21 22  1  0  0  0  0
 22 23  1  0  0  0  0
 22 25  1  0  0  0  0
 24 22  1  0  0  0  0
M  RAD  3  11   2  12   3  17   2
M  END
