Coordinates from ORCA-job p-CH3O-Ph-N2-X-OTf-B3LYPG-6-31G_dp-scan-d09-49-n400
 OpenBabel08281821483D

 25 24  0  0  0  0  0  0  0  0999 V2000
   -2.1337   -0.8841   -5.3676 C   0  0  0  0  0  0  0  0  0  0  0  0
   -0.9920   -0.1393   -5.1663 C   0  0  0  0  0  0  0  0  0  0  0  0
   -1.1299    1.2583   -5.0162 C   0  0  0  0  0  0  0  0  0  0  0  0
   -2.3771    1.8949   -5.0659 C   0  0  0  0  0  0  0  0  0  0  0  0
   -3.5165    1.1353   -5.2784 C   0  0  0  0  0  0  0  0  0  0  0  0
   -3.3997   -0.2610   -5.4309 C   0  0  0  0  0  0  0  0  0  0  0  0
   -2.0811   -1.9598   -5.4927 H   0  0  0  0  0  0  0  0  0  0  0  0
   -0.0065   -0.5867   -5.1143 H   0  0  0  0  0  0  0  0  0  0  0  0
   -2.4407    2.9709   -4.9452 H   0  0  0  0  0  0  0  0  0  0  0  0
   -4.4808    1.6243   -5.3259 H   0  0  0  0  0  0  0  0  0  0  0  0
   -0.0062    2.0326   -4.8095 N   0  0  0  0  0  0  0  0  0  0  0  0
    1.1071    2.2422   -4.7243 N   0  0  0  0  0  0  0  0  0  0  0  0
    2.3662    0.2624   -6.5585 S   0  0  0  0  0  0  0  0  0  0  0  0
    3.9240    1.2473   -6.7859 C   0  0  0  0  0  0  0  0  0  0  0  0
    2.7108   -1.1153   -6.9190 O   0  0  0  0  0  0  0  0  0  0  0  0
    1.3489    0.9677   -7.3593 O   0  0  0  0  0  0  0  0  0  0  0  0
    2.1078    0.4233   -5.0604 O   0  0  0  0  0  0  0  0  0  0  0  0
    3.7226    2.5206   -6.4055 F   0  0  0  0  0  0  0  0  0  0  0  0
    4.9184    0.7364   -6.0519 F   0  0  0  0  0  0  0  0  0  0  0  0
    4.2909    1.2412   -8.0731 F   0  0  0  0  0  0  0  0  0  0  0  0
   -4.4367   -1.0886   -5.6366 O   0  0  0  0  0  0  0  0  0  0  0  0
   -5.7584   -0.5534   -5.7263 C   0  0  0  0  0  0  0  0  0  0  0  0
   -6.4107   -1.4103   -5.8906 H   0  0  0  0  0  0  0  0  0  0  0  0
   -5.8471    0.1409   -6.5692 H   0  0  0  0  0  0  0  0  0  0  0  0
   -6.0452   -0.0495   -4.7965 H   0  0  0  0  0  0  0  0  0  0  0  0
  1  2  1  0  0  0  0
  2  8  1  0  0  0  0
  2  3  2  0  0  0  0
  3 11  1  0  0  0  0
  4  3  1  0  0  0  0
  4  9  1  0  0  0  0
  5  4  2  0  0  0  0
  6  1  2  0  0  0  0
  6  5  1  0  0  0  0
  7  1  1  0  0  0  0
 10  5  1  0  0  0  0
 11 12  1  0  0  0  0
 13 17  1  0  0  0  0
 14 13  1  0  0  0  0
 14 18  1  0  0  0  0
 14 19  1  0  0  0  0
 15 13  2  0  0  0  0
 16 13  2  0  0  0  0
 20 14  1  0  0  0  0
 21  6  1  0  0  0  0
 22 21  1  0  0  0  0
 22 25  1  0  0  0  0
 23 22  1  0  0  0  0
 24 22  1  0  0  0  0
M  RAD  3  11   2  12   3  17   2
M  END
