Coordinates from ORCA-job p-CH3O-Ph-N2-X-OTf-B3LYPG-6-31G_dp-scan-d09-49-n400
 OpenBabel08281821483D

 25 25  0  0  0  0  0  0  0  0999 V2000
   -2.1317   -1.1894   -5.3233 C   0  0  0  0  0  0  0  0  0  0  0  0
   -0.8573   -0.6496   -5.3499 C   0  0  0  0  0  0  0  0  0  0  0  0
   -0.7003    0.7377   -5.4706 C   0  0  0  0  0  0  0  0  0  0  0  0
   -1.8132    1.5743   -5.5716 C   0  0  0  0  0  0  0  0  0  0  0  0
   -3.0964    1.0339   -5.5327 C   0  0  0  0  0  0  0  0  0  0  0  0
   -3.2603   -0.3541   -5.4118 C   0  0  0  0  0  0  0  0  0  0  0  0
   -2.2863   -2.2587   -5.2284 H   0  0  0  0  0  0  0  0  0  0  0  0
    0.0138   -1.2897   -5.2785 H   0  0  0  0  0  0  0  0  0  0  0  0
   -1.6711    2.6453   -5.6722 H   0  0  0  0  0  0  0  0  0  0  0  0
   -3.9508    1.6947   -5.6056 H   0  0  0  0  0  0  0  0  0  0  0  0
    0.6107    1.3191   -5.4783 N   0  0  0  0  0  0  0  0  0  0  0  0
    0.8972    2.2574   -4.6408 N   0  0  0  0  0  0  0  0  0  0  0  0
    1.6997    1.0650   -6.9618 S   0  0  0  0  0  0  0  0  0  0  0  0
    3.4274    0.6948   -6.2480 C   0  0  0  0  0  0  0  0  0  0  0  0
    1.2193   -0.2129   -7.4767 O   0  0  0  0  0  0  0  0  0  0  0  0
    1.7250    2.2634   -7.7854 O   0  0  0  0  0  0  0  0  0  0  0  0
    2.1721    2.8475   -4.9631 O   0  0  0  0  0  0  0  0  0  0  0  0
    3.3052    0.2636   -4.9985 F   0  0  0  0  0  0  0  0  0  0  0  0
    3.9205   -0.2818   -7.0102 F   0  0  0  0  0  0  0  0  0  0  0  0
    4.2073    1.7511   -6.3242 F   0  0  0  0  0  0  0  0  0  0  0  0
   -4.4584   -0.9859   -5.3725 O   0  0  0  0  0  0  0  0  0  0  0  0
   -5.6458   -0.2057   -5.4522 C   0  0  0  0  0  0  0  0  0  0  0  0
   -6.4721   -0.9152   -5.4040 H   0  0  0  0  0  0  0  0  0  0  0  0
   -5.6988    0.3487   -6.3969 H   0  0  0  0  0  0  0  0  0  0  0  0
   -5.7215    0.4964   -4.6127 H   0  0  0  0  0  0  0  0  0  0  0  0
  1  7  1  0  0  0  0
  2  1  1  0  0  0  0
  2  8  1  0  0  0  0
  3  2  2  0  0  0  0
  4  5  2  0  0  0  0
  4  3  1  0  0  0  0
  5  6  1  0  0  0  0
  6 21  1  0  0  0  0
  6  1  2  0  0  0  0
  9  4  1  0  0  0  0
 10  5  1  0  0  0  0
 11  3  1  0  0  0  0
 11 12  1  0  0  0  0
 13 14  1  0  0  0  0
 13 11  1  0  0  0  0
 14 18  1  0  0  0  0
 15 13  2  0  0  0  0
 16 13  2  0  0  0  0
 17 12  1  0  0  0  0
 19 14  1  0  0  0  0
 20 14  1  0  0  0  0
 22 23  1  0  0  0  0
 22 21  1  0  0  0  0
 22 25  1  0  0  0  0
 24 22  1  0  0  0  0
M  RAD  2  12   2  17   2
M  END
