Coordinates from ORCA-job p-CH3O-Ph-N2-X-OTf-B3LYPG-6-31G_dp-scan-d09-49-n400
 OpenBabel08281821483D

 25 24  0  0  0  0  0  0  0  0999 V2000
   -2.0721   -0.9061   -5.2193 C   0  0  0  0  0  0  0  0  0  0  0  0
   -0.9235   -0.1759   -5.0171 C   0  0  0  0  0  0  0  0  0  0  0  0
   -1.0432    1.2319   -4.9816 C   0  0  0  0  0  0  0  0  0  0  0  0
   -2.2655    1.9009   -5.1550 C   0  0  0  0  0  0  0  0  0  0  0  0
   -3.4065    1.1482   -5.3683 C   0  0  0  0  0  0  0  0  0  0  0  0
   -3.3164   -0.2608   -5.4014 C   0  0  0  0  0  0  0  0  0  0  0  0
   -2.0409   -1.9890   -5.2628 H   0  0  0  0  0  0  0  0  0  0  0  0
    0.0610   -0.6197   -4.8961 H   0  0  0  0  0  0  0  0  0  0  0  0
   -2.3086    2.9843   -5.1299 H   0  0  0  0  0  0  0  0  0  0  0  0
   -4.3538    1.6511   -5.5113 H   0  0  0  0  0  0  0  0  0  0  0  0
    0.0849    1.9749   -4.7641 N   0  0  0  0  0  0  0  0  0  0  0  0
    1.0368    2.5124   -4.5438 N   0  0  0  0  0  0  0  0  0  0  0  0
    2.2339    0.1601   -6.5402 S   0  0  0  0  0  0  0  0  0  0  0  0
    3.7065    1.2620   -6.7974 C   0  0  0  0  0  0  0  0  0  0  0  0
    2.5659   -1.0935   -7.2280 O   0  0  0  0  0  0  0  0  0  0  0  0
    1.1088    0.9532   -7.1069 O   0  0  0  0  0  0  0  0  0  0  0  0
    2.1531    0.0781   -5.0453 O   0  0  0  0  0  0  0  0  0  0  0  0
    3.4995    2.4577   -6.2026 F   0  0  0  0  0  0  0  0  0  0  0  0
    4.8126    0.7223   -6.2694 F   0  0  0  0  0  0  0  0  0  0  0  0
    3.9204    1.4815   -8.1020 F   0  0  0  0  0  0  0  0  0  0  0  0
   -4.3603   -1.0756   -5.5982 O   0  0  0  0  0  0  0  0  0  0  0  0
   -5.6626   -0.5244   -5.8152 C   0  0  0  0  0  0  0  0  0  0  0  0
   -6.3227   -1.3805   -5.9471 H   0  0  0  0  0  0  0  0  0  0  0  0
   -5.6816    0.0958   -6.7175 H   0  0  0  0  0  0  0  0  0  0  0  0
   -5.9915    0.0615   -4.9497 H   0  0  0  0  0  0  0  0  0  0  0  0
  1  2  2  0  0  0  0
  2  3  1  0  0  0  0
  2  8  1  0  0  0  0
  3 11  1  0  0  0  0
  4  9  1  0  0  0  0
  4  3  2  0  0  0  0
  5  4  1  0  0  0  0
  6  5  2  0  0  0  0
  6  1  1  0  0  0  0
  7  1  1  0  0  0  0
 10  5  1  0  0  0  0
 11 12  1  0  0  0  0
 13 17  1  0  0  0  0
 14 13  1  0  0  0  0
 14 19  1  0  0  0  0
 14 18  1  0  0  0  0
 15 13  2  0  0  0  0
 16 13  2  0  0  0  0
 20 14  1  0  0  0  0
 21  6  1  0  0  0  0
 22 21  1  0  0  0  0
 22 25  1  0  0  0  0
 23 22  1  0  0  0  0
 24 22  1  0  0  0  0
M  RAD  3  11   2  12   3  17   2
M  END
