Coordinates from ORCA-job p-CH3O-Ph-N2-X-OTf-B3LYPG-6-31G_dp-scan-d09-49-n400
 OpenBabel08281821483D

 25 24  0  0  0  0  0  0  0  0999 V2000
   -2.0614   -0.9039   -5.2166 C   0  0  0  0  0  0  0  0  0  0  0  0
   -0.9066   -0.1704   -5.0642 C   0  0  0  0  0  0  0  0  0  0  0  0
   -1.0246    1.2361   -5.0684 C   0  0  0  0  0  0  0  0  0  0  0  0
   -2.2521    1.9023   -5.2335 C   0  0  0  0  0  0  0  0  0  0  0  0
   -3.3980    1.1454   -5.3953 C   0  0  0  0  0  0  0  0  0  0  0  0
   -3.3098   -0.2643   -5.3873 C   0  0  0  0  0  0  0  0  0  0  0  0
   -2.0316   -1.9877   -5.2272 H   0  0  0  0  0  0  0  0  0  0  0  0
    0.0849   -0.6085   -4.9606 H   0  0  0  0  0  0  0  0  0  0  0  0
   -2.2944    2.9860   -5.2411 H   0  0  0  0  0  0  0  0  0  0  0  0
   -4.3476    1.6461   -5.5303 H   0  0  0  0  0  0  0  0  0  0  0  0
    0.0915    2.0125   -4.8900 N   0  0  0  0  0  0  0  0  0  0  0  0
    0.9358    2.7047   -4.6662 N   0  0  0  0  0  0  0  0  0  0  0  0
    2.2218    0.1325   -6.6190 S   0  0  0  0  0  0  0  0  0  0  0  0
    3.7135    1.2381   -6.6718 C   0  0  0  0  0  0  0  0  0  0  0  0
    2.5711   -1.0224   -7.4538 O   0  0  0  0  0  0  0  0  0  0  0  0
    1.1332    1.0150   -7.1292 O   0  0  0  0  0  0  0  0  0  0  0  0
    2.0746   -0.1321   -5.1537 O   0  0  0  0  0  0  0  0  0  0  0  0
    3.4836    2.3581   -5.9474 F   0  0  0  0  0  0  0  0  0  0  0  0
    4.7899    0.6293   -6.1585 F   0  0  0  0  0  0  0  0  0  0  0  0
    3.9934    1.6122   -7.9276 F   0  0  0  0  0  0  0  0  0  0  0  0
   -4.3590   -1.0827   -5.5339 O   0  0  0  0  0  0  0  0  0  0  0  0
   -5.6657   -0.5358   -5.7351 C   0  0  0  0  0  0  0  0  0  0  0  0
   -6.3296   -1.3942   -5.8272 H   0  0  0  0  0  0  0  0  0  0  0  0
   -5.7057    0.0591   -6.6536 H   0  0  0  0  0  0  0  0  0  0  0  0
   -5.9732    0.0747   -4.8788 H   0  0  0  0  0  0  0  0  0  0  0  0
  1  2  2  0  0  0  0
  2  8  1  0  0  0  0
  3  2  1  0  0  0  0
  3 11  1  0  0  0  0
  4  3  2  0  0  0  0
  5  6  2  0  0  0  0
  5  4  1  0  0  0  0
  6  1  1  0  0  0  0
  7  1  1  0  0  0  0
  9  4  1  0  0  0  0
 10  5  1  0  0  0  0
 11 12  1  0  0  0  0
 13 17  1  0  0  0  0
 14 13  1  0  0  0  0
 14 19  1  0  0  0  0
 14 18  1  0  0  0  0
 15 13  2  0  0  0  0
 16 13  2  0  0  0  0
 20 14  1  0  0  0  0
 21  6  1  0  0  0  0
 22 21  1  0  0  0  0
 22 25  1  0  0  0  0
 23 22  1  0  0  0  0
 24 22  1  0  0  0  0
M  RAD  3  11   2  12   3  17   2
M  END
