Coordinates from ORCA-job p-CH3O-Ph-N2-X-OTf-B3LYPG-6-31G_dp-scan-d09-49-n400
 OpenBabel08281821483D

 25 24  0  0  0  0  0  0  0  0999 V2000
   -1.9757   -0.7901   -5.3919 C   0  0  0  0  0  0  0  0  0  0  0  0
   -0.8648    0.0237   -5.3544 C   0  0  0  0  0  0  0  0  0  0  0  0
   -1.0896    1.4175   -5.3200 C   0  0  0  0  0  0  0  0  0  0  0  0
   -2.3763    1.9917   -5.3301 C   0  0  0  0  0  0  0  0  0  0  0  0
   -3.4732    1.1536   -5.3789 C   0  0  0  0  0  0  0  0  0  0  0  0
   -3.2791   -0.2467   -5.4100 C   0  0  0  0  0  0  0  0  0  0  0  0
   -1.8650   -1.8683   -5.4264 H   0  0  0  0  0  0  0  0  0  0  0  0
    0.1552   -0.3754   -5.3767 H   0  0  0  0  0  0  0  0  0  0  0  0
   -2.4991    3.0693   -5.3087 H   0  0  0  0  0  0  0  0  0  0  0  0
   -4.4667    1.5821   -5.3956 H   0  0  0  0  0  0  0  0  0  0  0  0
   -0.0281    2.2825   -5.2514 N   0  0  0  0  0  0  0  0  0  0  0  0
    0.7594    3.0624   -5.1234 N   0  0  0  0  0  0  0  0  0  0  0  0
    2.3254    0.0897   -6.9211 S   0  0  0  0  0  0  0  0  0  0  0  0
    3.6973    1.0799   -6.1519 C   0  0  0  0  0  0  0  0  0  0  0  0
    2.9177   -0.4975   -8.1260 O   0  0  0  0  0  0  0  0  0  0  0  0
    1.2782    1.1324   -7.1465 O   0  0  0  0  0  0  0  0  0  0  0  0
    1.9548   -0.8569   -5.8307 O   0  0  0  0  0  0  0  0  0  0  0  0
    3.2329    1.7407   -5.0586 F   0  0  0  0  0  0  0  0  0  0  0  0
    4.7086    0.2989   -5.7563 F   0  0  0  0  0  0  0  0  0  0  0  0
    4.1737    1.9975   -7.0050 F   0  0  0  0  0  0  0  0  0  0  0  0
   -4.2747   -1.1393   -5.4573 O   0  0  0  0  0  0  0  0  0  0  0  0
   -5.6328   -0.6920   -5.5031 C   0  0  0  0  0  0  0  0  0  0  0  0
   -6.2362   -1.5974   -5.5492 H   0  0  0  0  0  0  0  0  0  0  0  0
   -5.8160   -0.0830   -6.3948 H   0  0  0  0  0  0  0  0  0  0  0  0
   -5.8916   -0.1251   -4.6021 H   0  0  0  0  0  0  0  0  0  0  0  0
  1  2  1  0  0  0  0
  2  3  2  0  0  0  0
  3 11  1  0  0  0  0
  4  3  1  0  0  0  0
  4  9  1  0  0  0  0
  5  4  2  0  0  0  0
  6  1  2  0  0  0  0
  6  5  1  0  0  0  0
  7  1  1  0  0  0  0
  8  2  1  0  0  0  0
 10  5  1  0  0  0  0
 11 12  1  0  0  0  0
 13 14  1  0  0  0  0
 13 17  1  0  0  0  0
 14 19  1  0  0  0  0
 14 18  1  0  0  0  0
 15 13  2  0  0  0  0
 16 13  2  0  0  0  0
 20 14  1  0  0  0  0
 21  6  1  0  0  0  0
 22 21  1  0  0  0  0
 22 25  1  0  0  0  0
 23 22  1  0  0  0  0
 24 22  1  0  0  0  0
M  RAD  3  11   2  12   3  17   2
M  END
