Coordinates from ORCA-job p-CH3O-Ph-N2-X-OTf-B3LYPG-6-31G_dp-scan-d09-49-n400
 OpenBabel08281821483D

 25 24  0  0  0  0  0  0  0  0999 V2000
   -1.9535   -0.7712   -5.4941 C   0  0  0  0  0  0  0  0  0  0  0  0
   -0.8510    0.0556   -5.5096 C   0  0  0  0  0  0  0  0  0  0  0  0
   -1.0891    1.4458   -5.4426 C   0  0  0  0  0  0  0  0  0  0  0  0
   -2.3828    2.0016   -5.3679 C   0  0  0  0  0  0  0  0  0  0  0  0
   -3.4708    1.1511   -5.3647 C   0  0  0  0  0  0  0  0  0  0  0  0
   -3.2623   -0.2459   -5.4275 C   0  0  0  0  0  0  0  0  0  0  0  0
   -1.8303   -1.8471   -5.5497 H   0  0  0  0  0  0  0  0  0  0  0  0
    0.1646   -0.3448   -5.5930 H   0  0  0  0  0  0  0  0  0  0  0  0
   -2.5173    3.0771   -5.3217 H   0  0  0  0  0  0  0  0  0  0  0  0
   -4.4684    1.5676   -5.3156 H   0  0  0  0  0  0  0  0  0  0  0  0
   -0.0439    2.3349   -5.4172 N   0  0  0  0  0  0  0  0  0  0  0  0
    0.7086    3.1530   -5.3180 N   0  0  0  0  0  0  0  0  0  0  0  0
    2.3829    0.1214   -7.0122 S   0  0  0  0  0  0  0  0  0  0  0  0
    3.6234    1.0190   -5.9582 C   0  0  0  0  0  0  0  0  0  0  0  0
    3.1298   -0.2831   -8.2058 O   0  0  0  0  0  0  0  0  0  0  0  0
    1.3418    1.1759   -7.2174 O   0  0  0  0  0  0  0  0  0  0  0  0
    1.9141   -0.9700   -6.1134 O   0  0  0  0  0  0  0  0  0  0  0  0
    3.0030    1.5492   -4.8689 F   0  0  0  0  0  0  0  0  0  0  0  0
    4.5878    0.2032   -5.5199 F   0  0  0  0  0  0  0  0  0  0  0  0
    4.1911    2.0315   -6.6279 F   0  0  0  0  0  0  0  0  0  0  0  0
   -4.2480   -1.1507   -5.4289 O   0  0  0  0  0  0  0  0  0  0  0  0
   -5.6116   -0.7203   -5.3823 C   0  0  0  0  0  0  0  0  0  0  0  0
   -6.2058   -1.6327   -5.4032 H   0  0  0  0  0  0  0  0  0  0  0  0
   -5.8587   -0.1018   -6.2518 H   0  0  0  0  0  0  0  0  0  0  0  0
   -5.8193   -0.1691   -4.4587 H   0  0  0  0  0  0  0  0  0  0  0  0
  1  6  1  0  0  0  0
  2  1  2  0  0  0  0
  2  3  1  0  0  0  0
  3 11  1  0  0  0  0
  3  4  2  0  0  0  0
  4  5  1  0  0  0  0
  4  9  1  0  0  0  0
  5 10  1  0  0  0  0
  6  5  2  0  0  0  0
  7  1  1  0  0  0  0
  8  2  1  0  0  0  0
 11 12  1  0  0  0  0
 13 17  1  0  0  0  0
 13 14  1  0  0  0  0
 14 19  1  0  0  0  0
 14 18  1  0  0  0  0
 15 13  2  0  0  0  0
 16 13  2  0  0  0  0
 20 14  1  0  0  0  0
 21  6  1  0  0  0  0
 21 22  1  0  0  0  0
 22 25  1  0  0  0  0
 23 22  1  0  0  0  0
 24 22  1  0  0  0  0
M  RAD  3  11   2  12   3  17   2
M  END
