Coordinates from ORCA-job p-CH3O-Ph-N2-X-OTf-B3LYPG-6-31G_dp-scan-d09-49-n400
 OpenBabel08281821483D

 25 24  0  0  0  0  0  0  0  0999 V2000
   -2.1047   -0.8959   -5.2845 C   0  0  0  0  0  0  0  0  0  0  0  0
   -0.9602   -0.1657   -5.0566 C   0  0  0  0  0  0  0  0  0  0  0  0
   -1.0859    1.2380   -4.9529 C   0  0  0  0  0  0  0  0  0  0  0  0
   -2.3149    1.9009   -5.0784 C   0  0  0  0  0  0  0  0  0  0  0  0
   -3.4543    1.1521   -5.3190 C   0  0  0  0  0  0  0  0  0  0  0  0
   -3.3549   -0.2518   -5.4239 C   0  0  0  0  0  0  0  0  0  0  0  0
   -2.0663   -1.9753   -5.3785 H   0  0  0  0  0  0  0  0  0  0  0  0
    0.0200   -0.6180   -4.9550 H   0  0  0  0  0  0  0  0  0  0  0  0
   -2.3649    2.9812   -4.9955 H   0  0  0  0  0  0  0  0  0  0  0  0
   -4.4068    1.6541   -5.4264 H   0  0  0  0  0  0  0  0  0  0  0  0
    0.0506    1.9704   -4.7199 N   0  0  0  0  0  0  0  0  0  0  0  0
    1.1090    2.3092   -4.5565 N   0  0  0  0  0  0  0  0  0  0  0  0
    2.3309    0.1643   -6.4832 S   0  0  0  0  0  0  0  0  0  0  0  0
    3.7592    1.2882   -6.8647 C   0  0  0  0  0  0  0  0  0  0  0  0
    2.7304   -1.1564   -6.9819 O   0  0  0  0  0  0  0  0  0  0  0  0
    1.1753    0.8207   -7.1399 O   0  0  0  0  0  0  0  0  0  0  0  0
    2.2417    0.2547   -4.9786 O   0  0  0  0  0  0  0  0  0  0  0  0
    3.4953    2.5365   -6.4286 F   0  0  0  0  0  0  0  0  0  0  0  0
    4.8777    0.8625   -6.2653 F   0  0  0  0  0  0  0  0  0  0  0  0
    3.9767    1.3451   -8.1853 F   0  0  0  0  0  0  0  0  0  0  0  0
   -4.3953   -1.0653   -5.6516 O   0  0  0  0  0  0  0  0  0  0  0  0
   -5.7026   -0.5129   -5.8259 C   0  0  0  0  0  0  0  0  0  0  0  0
   -6.3594   -1.3653   -5.9945 H   0  0  0  0  0  0  0  0  0  0  0  0
   -5.7360    0.1530   -6.6950 H   0  0  0  0  0  0  0  0  0  0  0  0
   -6.0263    0.0259   -4.9285 H   0  0  0  0  0  0  0  0  0  0  0  0
  1  2  2  0  0  0  0
  2  8  1  0  0  0  0
  2  3  1  0  0  0  0
  3 11  1  0  0  0  0
  4  9  1  0  0  0  0
  4  3  2  0  0  0  0
  5  4  1  0  0  0  0
  6  5  2  0  0  0  0
  6  1  1  0  0  0  0
  7  1  1  0  0  0  0
 10  5  1  0  0  0  0
 11 12  1  0  0  0  0
 13 17  1  0  0  0  0
 14 13  1  0  0  0  0
 14 18  1  0  0  0  0
 14 19  1  0  0  0  0
 15 13  2  0  0  0  0
 16 13  2  0  0  0  0
 20 14  1  0  0  0  0
 21  6  1  0  0  0  0
 22 21  1  0  0  0  0
 22 25  1  0  0  0  0
 23 22  1  0  0  0  0
 24 22  1  0  0  0  0
M  RAD  3  11   2  12   3  17   2
M  END
