Coordinates from ORCA-job p-CH3O-Ph-N2-X-OTf-B3LYPG-6-31G_dp-scan-d09-49-n400
 OpenBabel08281821483D

 25 24  0  0  0  0  0  0  0  0999 V2000
   -1.9388   -0.5628   -5.9355 C   0  0  0  0  0  0  0  0  0  0  0  0
   -0.9649    0.3536   -6.2720 C   0  0  0  0  0  0  0  0  0  0  0  0
   -1.3074    1.7206   -6.1978 C   0  0  0  0  0  0  0  0  0  0  0  0
   -2.5862    2.1650   -5.7955 C   0  0  0  0  0  0  0  0  0  0  0  0
   -3.5420    1.2278   -5.4583 C   0  0  0  0  0  0  0  0  0  0  0  0
   -3.2239   -0.1489   -5.5271 C   0  0  0  0  0  0  0  0  0  0  0  0
   -1.7194   -1.6240   -5.9730 H   0  0  0  0  0  0  0  0  0  0  0  0
    0.0330    0.0333   -6.5692 H   0  0  0  0  0  0  0  0  0  0  0  0
   -2.8089    3.2257   -5.7501 H   0  0  0  0  0  0  0  0  0  0  0  0
   -4.5223    1.5614   -5.1442 H   0  0  0  0  0  0  0  0  0  0  0  0
   -0.4108    2.7100   -6.5286 N   0  0  0  0  0  0  0  0  0  0  0  0
    0.1580    3.6375   -6.7831 N   0  0  0  0  0  0  0  0  0  0  0  0
    2.6043    0.2943   -6.7738 S   0  0  0  0  0  0  0  0  0  0  0  0
    3.6195    0.3308   -5.2189 C   0  0  0  0  0  0  0  0  0  0  0  0
    3.5847    0.3334   -7.8637 O   0  0  0  0  0  0  0  0  0  0  0  0
    1.7609    1.5307   -6.6367 O   0  0  0  0  0  0  0  0  0  0  0  0
    1.7969   -0.9460   -6.6366 O   0  0  0  0  0  0  0  0  0  0  0  0
    2.8199    0.3331   -4.1339 F   0  0  0  0  0  0  0  0  0  0  0  0
    4.4183   -0.7423   -5.1469 F   0  0  0  0  0  0  0  0  0  0  0  0
    4.3824    1.4339   -5.1734 F   0  0  0  0  0  0  0  0  0  0  0  0
   -4.0797   -1.1314   -5.2225 O   0  0  0  0  0  0  0  0  0  0  0  0
   -5.4064   -0.8138   -4.7904 C   0  0  0  0  0  0  0  0  0  0  0  0
   -5.8892   -1.7723   -4.6054 H   0  0  0  0  0  0  0  0  0  0  0  0
   -5.9545   -0.2716   -5.5684 H   0  0  0  0  0  0  0  0  0  0  0  0
   -5.3894   -0.2280   -3.8651 H   0  0  0  0  0  0  0  0  0  0  0  0
  1  6  2  0  0  0  0
  2  3  2  0  0  0  0
  2  1  1  0  0  0  0
  3  4  1  0  0  0  0
  4  9  1  0  0  0  0
  4  5  2  0  0  0  0
  5 10  1  0  0  0  0
  6  5  1  0  0  0  0
  6 21  1  0  0  0  0
  7  1  1  0  0  0  0
  8  2  1  0  0  0  0
 11  3  1  0  0  0  0
 12 11  1  0  0  0  0
 13 16  2  0  0  0  0
 13 17  1  0  0  0  0
 13 14  1  0  0  0  0
 14 20  1  0  0  0  0
 14 19  1  0  0  0  0
 14 18  1  0  0  0  0
 15 13  2  0  0  0  0
 21 22  1  0  0  0  0
 22 23  1  0  0  0  0
 22 25  1  0  0  0  0
 24 22  1  0  0  0  0
M  RAD  3  11   2  12   3  17   2
M  END
