Coordinates from ORCA-job p-CH3O-Ph-N2-X-OTf-B3LYPG-6-31G_dp-scan-d09-49-n400
 OpenBabel08281821483D

 25 25  0  0  0  0  0  0  0  0999 V2000
   -2.1402   -1.1854   -5.3609 C   0  0  0  0  0  0  0  0  0  0  0  0
   -0.8677   -0.6413   -5.3829 C   0  0  0  0  0  0  0  0  0  0  0  0
   -0.7184    0.7501   -5.4686 C   0  0  0  0  0  0  0  0  0  0  0  0
   -1.8355    1.5858   -5.5398 C   0  0  0  0  0  0  0  0  0  0  0  0
   -3.1154    1.0391   -5.5084 C   0  0  0  0  0  0  0  0  0  0  0  0
   -3.2728   -0.3527   -5.4216 C   0  0  0  0  0  0  0  0  0  0  0  0
   -2.2900   -2.2573   -5.2918 H   0  0  0  0  0  0  0  0  0  0  0  0
    0.0053   -1.2800   -5.3344 H   0  0  0  0  0  0  0  0  0  0  0  0
   -1.6972    2.6594   -5.6139 H   0  0  0  0  0  0  0  0  0  0  0  0
   -3.9730    1.6978   -5.5602 H   0  0  0  0  0  0  0  0  0  0  0  0
    0.5869    1.3420   -5.4693 N   0  0  0  0  0  0  0  0  0  0  0  0
    0.8671    2.2791   -4.6591 N   0  0  0  0  0  0  0  0  0  0  0  0
    1.7296    1.0493   -6.9493 S   0  0  0  0  0  0  0  0  0  0  0  0
    3.4610    0.6974   -6.2270 C   0  0  0  0  0  0  0  0  0  0  0  0
    1.2574   -0.2522   -7.4149 O   0  0  0  0  0  0  0  0  0  0  0  0
    1.7353    2.2098   -7.8259 O   0  0  0  0  0  0  0  0  0  0  0  0
    2.2334    2.8696   -5.0603 O   0  0  0  0  0  0  0  0  0  0  0  0
    3.3366    0.2885   -4.9716 F   0  0  0  0  0  0  0  0  0  0  0  0
    3.9506   -0.2949   -6.9720 F   0  0  0  0  0  0  0  0  0  0  0  0
    4.2427    1.7487   -6.3273 F   0  0  0  0  0  0  0  0  0  0  0  0
   -4.4673   -0.9899   -5.3915 O   0  0  0  0  0  0  0  0  0  0  0  0
   -5.6593   -0.2138   -5.4453 C   0  0  0  0  0  0  0  0  0  0  0  0
   -6.4815   -0.9286   -5.4099 H   0  0  0  0  0  0  0  0  0  0  0  0
   -5.7201    0.3630   -6.3759 H   0  0  0  0  0  0  0  0  0  0  0  0
   -5.7332    0.4668   -4.5883 H   0  0  0  0  0  0  0  0  0  0  0  0
  1  7  1  0  0  0  0
  2  1  1  0  0  0  0
  2  8  1  0  0  0  0
  3  2  2  0  0  0  0
  4  5  2  0  0  0  0
  4  3  1  0  0  0  0
  5  6  1  0  0  0  0
  6 21  1  0  0  0  0
  6  1  2  0  0  0  0
  9  4  1  0  0  0  0
 10  5  1  0  0  0  0
 11  3  1  0  0  0  0
 11 12  1  0  0  0  0
 13 14  1  0  0  0  0
 13 11  1  0  0  0  0
 14 18  1  0  0  0  0
 15 13  2  0  0  0  0
 16 13  2  0  0  0  0
 17 12  1  0  0  0  0
 19 14  1  0  0  0  0
 20 14  1  0  0  0  0
 22 23  1  0  0  0  0
 22 21  1  0  0  0  0
 22 25  1  0  0  0  0
 24 22  1  0  0  0  0
M  RAD  2  12   2  17   2
M  END
