Coordinates from ORCA-job p-CH3O-Ph-N2-X-OTf-B3LYPG-6-31G_dp-scan-d09-49-n400
 OpenBabel08281821483D

 25 24  0  0  0  0  0  0  0  0999 V2000
   -2.1170   -0.8934   -5.3133 C   0  0  0  0  0  0  0  0  0  0  0  0
   -0.9734   -0.1593   -5.0900 C   0  0  0  0  0  0  0  0  0  0  0  0
   -1.1022    1.2420   -4.9661 C   0  0  0  0  0  0  0  0  0  0  0  0
   -2.3373    1.8965   -5.0652 C   0  0  0  0  0  0  0  0  0  0  0  0
   -3.4771    1.1457   -5.3016 C   0  0  0  0  0  0  0  0  0  0  0  0
   -3.3723   -0.2552   -5.4274 C   0  0  0  0  0  0  0  0  0  0  0  0
   -2.0741   -1.9715   -5.4210 H   0  0  0  0  0  0  0  0  0  0  0  0
    0.0074   -0.6122   -5.0040 H   0  0  0  0  0  0  0  0  0  0  0  0
   -2.3918    2.9751   -4.9654 H   0  0  0  0  0  0  0  0  0  0  0  0
   -4.4335    1.6445   -5.3889 H   0  0  0  0  0  0  0  0  0  0  0  0
    0.0310    1.9881   -4.7387 N   0  0  0  0  0  0  0  0  0  0  0  0
    1.1192    2.2584   -4.6077 N   0  0  0  0  0  0  0  0  0  0  0  0
    2.3454    0.2034   -6.4983 S   0  0  0  0  0  0  0  0  0  0  0  0
    3.8173    1.2787   -6.8527 C   0  0  0  0  0  0  0  0  0  0  0  0
    2.7339   -1.1458   -6.9210 O   0  0  0  0  0  0  0  0  0  0  0  0
    1.2294    0.8590   -7.2132 O   0  0  0  0  0  0  0  0  0  0  0  0
    2.2016    0.3434   -4.9932 O   0  0  0  0  0  0  0  0  0  0  0  0
    3.5775    2.5387   -6.4436 F   0  0  0  0  0  0  0  0  0  0  0  0
    4.9026    0.8266   -6.2143 F   0  0  0  0  0  0  0  0  0  0  0  0
    4.0717    1.3044   -8.1672 F   0  0  0  0  0  0  0  0  0  0  0  0
   -4.4118   -1.0724   -5.6529 O   0  0  0  0  0  0  0  0  0  0  0  0
   -5.7234   -0.5238   -5.8008 C   0  0  0  0  0  0  0  0  0  0  0  0
   -6.3792   -1.3764   -5.9725 H   0  0  0  0  0  0  0  0  0  0  0  0
   -5.7724    0.1547   -6.6594 H   0  0  0  0  0  0  0  0  0  0  0  0
   -6.0372    0.0009   -4.8915 H   0  0  0  0  0  0  0  0  0  0  0  0
  1  2  1  0  0  0  0
  2  8  1  0  0  0  0
  2  3  2  0  0  0  0
  3 11  1  0  0  0  0
  4  3  1  0  0  0  0
  4  9  1  0  0  0  0
  5  4  2  0  0  0  0
  6  1  2  0  0  0  0
  6  5  1  0  0  0  0
  7  1  1  0  0  0  0
 10  5  1  0  0  0  0
 11 12  1  0  0  0  0
 13 17  1  0  0  0  0
 14 13  1  0  0  0  0
 14 18  1  0  0  0  0
 14 19  1  0  0  0  0
 15 13  2  0  0  0  0
 16 13  2  0  0  0  0
 20 14  1  0  0  0  0
 21  6  1  0  0  0  0
 22 21  1  0  0  0  0
 22 25  1  0  0  0  0
 23 22  1  0  0  0  0
 24 22  1  0  0  0  0
M  RAD  3  11   2  12   3  17   2
M  END
