Coordinates from ORCA-job p-CH3O-Ph-N2-X-OTf-B3LYPG-6-31G_dp-scan-d09-49-n400
 OpenBabel08281821483D

 25 24  0  0  0  0  0  0  0  0999 V2000
   -2.1264   -0.8878   -5.3462 C   0  0  0  0  0  0  0  0  0  0  0  0
   -0.9842   -0.1470   -5.1348 C   0  0  0  0  0  0  0  0  0  0  0  0
   -1.1187    1.2520   -4.9936 C   0  0  0  0  0  0  0  0  0  0  0  0
   -2.3616    1.8950   -5.0624 C   0  0  0  0  0  0  0  0  0  0  0  0
   -3.5010    1.1389   -5.2861 C   0  0  0  0  0  0  0  0  0  0  0  0
   -3.3884   -0.2590   -5.4298 C   0  0  0  0  0  0  0  0  0  0  0  0
   -2.0770   -1.9644   -5.4655 H   0  0  0  0  0  0  0  0  0  0  0  0
   -0.0005   -0.5965   -5.0691 H   0  0  0  0  0  0  0  0  0  0  0  0
   -2.4220    2.9719   -4.9484 H   0  0  0  0  0  0  0  0  0  0  0  0
   -4.4624    1.6317   -5.3493 H   0  0  0  0  0  0  0  0  0  0  0  0
    0.0086    2.0163   -4.7775 N   0  0  0  0  0  0  0  0  0  0  0  0
    1.1159    2.2396   -4.6775 N   0  0  0  0  0  0  0  0  0  0  0  0
    2.3550    0.2426   -6.5316 S   0  0  0  0  0  0  0  0  0  0  0  0
    3.8824    1.2594   -6.8166 C   0  0  0  0  0  0  0  0  0  0  0  0
    2.7157   -1.1275   -6.9064 O   0  0  0  0  0  0  0  0  0  0  0  0
    1.2980    0.9254   -7.3022 O   0  0  0  0  0  0  0  0  0  0  0  0
    2.1424    0.4031   -5.0295 O   0  0  0  0  0  0  0  0  0  0  0  0
    3.6700    2.5284   -6.4258 F   0  0  0  0  0  0  0  0  0  0  0  0
    4.9154    0.7688   -6.1231 F   0  0  0  0  0  0  0  0  0  0  0  0
    4.1996    1.2639   -8.1172 F   0  0  0  0  0  0  0  0  0  0  0  0
   -4.4262   -1.0825   -5.6453 O   0  0  0  0  0  0  0  0  0  0  0  0
   -5.7440   -0.5419   -5.7592 C   0  0  0  0  0  0  0  0  0  0  0  0
   -6.3975   -1.3969   -5.9280 H   0  0  0  0  0  0  0  0  0  0  0  0
   -5.8160    0.1472   -6.6078 H   0  0  0  0  0  0  0  0  0  0  0  0
   -6.0428   -0.0306   -4.8372 H   0  0  0  0  0  0  0  0  0  0  0  0
  1  2  1  0  0  0  0
  2  8  1  0  0  0  0
  2  3  2  0  0  0  0
  3 11  1  0  0  0  0
  4  3  1  0  0  0  0
  4  9  1  0  0  0  0
  5  4  2  0  0  0  0
  6  1  2  0  0  0  0
  6  5  1  0  0  0  0
  7  1  1  0  0  0  0
 10  5  1  0  0  0  0
 11 12  1  0  0  0  0
 13 17  1  0  0  0  0
 14 13  1  0  0  0  0
 14 18  1  0  0  0  0
 14 19  1  0  0  0  0
 15 13  2  0  0  0  0
 16 13  2  0  0  0  0
 20 14  1  0  0  0  0
 21  6  1  0  0  0  0
 22 21  1  0  0  0  0
 22 25  1  0  0  0  0
 23 22  1  0  0  0  0
 24 22  1  0  0  0  0
M  RAD  3  11   2  12   3  17   2
M  END
