Coordinates from ORCA-job p-CH3O-Ph-N2-X-OTf-B3LYPG-6-31G_dp-scan-d09-49-n400
 OpenBabel08281821483D

 25 24  0  0  0  0  0  0  0  0999 V2000
   -1.8873   -0.5714   -6.2607 C   0  0  0  0  0  0  0  0  0  0  0  0
   -0.9182    0.3408   -6.6211 C   0  0  0  0  0  0  0  0  0  0  0  0
   -1.1504    1.6956   -6.3038 C   0  0  0  0  0  0  0  0  0  0  0  0
   -2.3189    2.1329   -5.6422 C   0  0  0  0  0  0  0  0  0  0  0  0
   -3.2729    1.2005   -5.2876 C   0  0  0  0  0  0  0  0  0  0  0  0
   -3.0630   -0.1642   -5.5961 C   0  0  0  0  0  0  0  0  0  0  0  0
   -1.7463   -1.6251   -6.4726 H   0  0  0  0  0  0  0  0  0  0  0  0
    0.0040    0.0246   -7.1014 H   0  0  0  0  0  0  0  0  0  0  0  0
   -2.4579    3.1839   -5.4128 H   0  0  0  0  0  0  0  0  0  0  0  0
   -4.1690    1.5286   -4.7775 H   0  0  0  0  0  0  0  0  0  0  0  0
   -0.2504    2.6777   -6.6400 N   0  0  0  0  0  0  0  0  0  0  0  0
    0.3405    3.5999   -6.8599 N   0  0  0  0  0  0  0  0  0  0  0  0
    2.6074    0.2193   -6.8951 S   0  0  0  0  0  0  0  0  0  0  0  0
    2.8594    0.4791   -5.0722 C   0  0  0  0  0  0  0  0  0  0  0  0
    3.9561    0.1633   -7.4630 O   0  0  0  0  0  0  0  0  0  0  0  0
    1.8055    1.4366   -7.2560 O   0  0  0  0  0  0  0  0  0  0  0  0
    1.7890   -1.0173   -6.9477 O   0  0  0  0  0  0  0  0  0  0  0  0
    1.6581    0.6548   -4.4647 F   0  0  0  0  0  0  0  0  0  0  0  0
    3.4589   -0.5714   -4.5003 F   0  0  0  0  0  0  0  0  0  0  0  0
    3.5963    1.5740   -4.8321 F   0  0  0  0  0  0  0  0  0  0  0  0
   -3.9258   -1.1414   -5.2942 O   0  0  0  0  0  0  0  0  0  0  0  0
   -5.1375   -0.8335   -4.5983 C   0  0  0  0  0  0  0  0  0  0  0  0
   -5.6482   -1.7865   -4.4673 H   0  0  0  0  0  0  0  0  0  0  0  0
   -5.7681   -0.1572   -5.1858 H   0  0  0  0  0  0  0  0  0  0  0  0
   -4.9269   -0.3937   -3.6176 H   0  0  0  0  0  0  0  0  0  0  0  0
  1  6  2  0  0  0  0
  2  3  2  0  0  0  0
  2  1  1  0  0  0  0
  3  4  1  0  0  0  0
  4  9  1  0  0  0  0
  4  5  2  0  0  0  0
  5 10  1  0  0  0  0
  6 21  1  0  0  0  0
  6  5  1  0  0  0  0
  7  1  1  0  0  0  0
  8  2  1  0  0  0  0
 11  3  1  0  0  0  0
 12 11  1  0  0  0  0
 13 14  1  0  0  0  0
 14 20  1  0  0  0  0
 14 19  1  0  0  0  0
 14 18  1  0  0  0  0
 15 13  2  0  0  0  0
 16 13  2  0  0  0  0
 17 13  1  0  0  0  0
 21 22  1  0  0  0  0
 22 23  1  0  0  0  0
 22 25  1  0  0  0  0
 24 22  1  0  0  0  0
M  RAD  3  11   2  12   3  17   2
M  END
