Coordinates from ORCA-job p-CH3O-Ph-N2-X-OTf-B3LYPG-6-31G_dp-scan-d09-49-n400
 OpenBabel08281821483D

 25 25  0  0  0  0  0  0  0  0999 V2000
   -3.1122   -1.5869   -5.5747 C   0  0  0  0  0  0  0  0  0  0  0  0
   -1.7754   -1.4467   -5.8991 C   0  0  0  0  0  0  0  0  0  0  0  0
   -1.2010   -0.1668   -5.9293 C   0  0  0  0  0  0  0  0  0  0  0  0
   -1.9661    0.9723   -5.6384 C   0  0  0  0  0  0  0  0  0  0  0  0
   -3.3082    0.8322   -5.3155 C   0  0  0  0  0  0  0  0  0  0  0  0
   -3.8899   -0.4505   -5.2807 C   0  0  0  0  0  0  0  0  0  0  0  0
   -3.5869   -2.5611   -5.5420 H   0  0  0  0  0  0  0  0  0  0  0  0
   -1.1597   -2.3083   -6.1321 H   0  0  0  0  0  0  0  0  0  0  0  0
   -1.5074    1.9550   -5.6705 H   0  0  0  0  0  0  0  0  0  0  0  0
   -3.8937    1.7156   -5.0938 H   0  0  0  0  0  0  0  0  0  0  0  0
    0.1646   -0.0893   -6.2692 N   0  0  0  0  0  0  0  0  0  0  0  0
    0.8473    0.8608   -6.3387 N   0  0  0  0  0  0  0  0  0  0  0  0
    3.4283    1.3655   -7.2990 S   0  0  0  0  0  0  0  0  0  0  0  0
    4.0656    1.9783   -5.6613 C   0  0  0  0  0  0  0  0  0  0  0  0
    4.5688    0.7644   -7.9803 O   0  0  0  0  0  0  0  0  0  0  0  0
    2.6978    2.4846   -7.8843 O   0  0  0  0  0  0  0  0  0  0  0  0
    2.4671    0.2101   -6.8259 O   0  0  0  0  0  0  0  0  0  0  0  0
    3.0459    2.4047   -4.9024 F   0  0  0  0  0  0  0  0  0  0  0  0
    4.7055    1.0014   -5.0137 F   0  0  0  0  0  0  0  0  0  0  0  0
    4.9086    2.9940   -5.8650 F   0  0  0  0  0  0  0  0  0  0  0  0
   -5.1812   -0.6923   -4.9780 O   0  0  0  0  0  0  0  0  0  0  0  0
   -6.0431    0.4046   -4.6786 C   0  0  0  0  0  0  0  0  0  0  0  0
   -7.0181   -0.0349   -4.4703 H   0  0  0  0  0  0  0  0  0  0  0  0
   -6.1264    1.0889   -5.5309 H   0  0  0  0  0  0  0  0  0  0  0  0
   -5.6959    0.9544   -3.7963 H   0  0  0  0  0  0  0  0  0  0  0  0
  1  7  1  0  0  0  0
  1  6  2  0  0  0  0
  2  1  1  0  0  0  0
  3  2  2  0  0  0  0
  3  4  1  0  0  0  0
  4  5  2  0  0  0  0
  5  6  1  0  0  0  0
  5 10  1  0  0  0  0
  6 21  1  0  0  0  0
  8  2  1  0  0  0  0
  9  4  1  0  0  0  0
 11  3  1  0  0  0  0
 12 11  1  0  0  0  0
 13 17  1  0  0  0  0
 13 14  1  0  0  0  0
 14 19  1  0  0  0  0
 14 18  1  0  0  0  0
 15 13  2  0  0  0  0
 16 13  2  0  0  0  0
 17 12  1  0  0  0  0
 20 14  1  0  0  0  0
 21 22  1  0  0  0  0
 22 23  1  0  0  0  0
 22 25  1  0  0  0  0
 24 22  1  0  0  0  0
M  RAD  2  11   2  12   2
M  END
