Coordinates from ORCA-job p-CH3O-Ph-N2-X-OTf-B3LYPG-6-31G_dp-scan-d09-49-n400
 OpenBabel08281821483D

 25 25  0  0  0  0  0  0  0  0999 V2000
   -2.1295   -1.1899   -5.3089 C   0  0  0  0  0  0  0  0  0  0  0  0
   -0.8546   -0.6511   -5.3364 C   0  0  0  0  0  0  0  0  0  0  0  0
   -0.6955    0.7347   -5.4692 C   0  0  0  0  0  0  0  0  0  0  0  0
   -1.8072    1.5710   -5.5812 C   0  0  0  0  0  0  0  0  0  0  0  0
   -3.0913    1.0323   -5.5408 C   0  0  0  0  0  0  0  0  0  0  0  0
   -3.2570   -0.3544   -5.4079 C   0  0  0  0  0  0  0  0  0  0  0  0
   -2.2854   -2.2582   -5.2049 H   0  0  0  0  0  0  0  0  0  0  0  0
    0.0159   -1.2911   -5.2563 H   0  0  0  0  0  0  0  0  0  0  0  0
   -1.6642    2.6409   -5.6911 H   0  0  0  0  0  0  0  0  0  0  0  0
   -3.9449    1.6932   -5.6217 H   0  0  0  0  0  0  0  0  0  0  0  0
    0.6170    1.3130   -5.4789 N   0  0  0  0  0  0  0  0  0  0  0  0
    0.9074    2.2503   -4.6319 N   0  0  0  0  0  0  0  0  0  0  0  0
    1.6910    1.0717   -6.9647 S   0  0  0  0  0  0  0  0  0  0  0  0
    3.4186    0.6934   -6.2576 C   0  0  0  0  0  0  0  0  0  0  0  0
    1.2069   -0.1982   -7.4949 O   0  0  0  0  0  0  0  0  0  0  0  0
    1.7219    2.2812   -7.7718 O   0  0  0  0  0  0  0  0  0  0  0  0
    2.1555    2.8366   -4.9325 O   0  0  0  0  0  0  0  0  0  0  0  0
    3.2988    0.2517   -5.0110 F   0  0  0  0  0  0  0  0  0  0  0  0
    3.9121   -0.2760   -7.0284 F   0  0  0  0  0  0  0  0  0  0  0  0
    4.1979    1.7516   -6.3240 F   0  0  0  0  0  0  0  0  0  0  0  0
   -4.4560   -0.9847   -5.3662 O   0  0  0  0  0  0  0  0  0  0  0  0
   -5.6422   -0.2039   -5.4562 C   0  0  0  0  0  0  0  0  0  0  0  0
   -6.4695   -0.9119   -5.4041 H   0  0  0  0  0  0  0  0  0  0  0  0
   -5.6919    0.3421   -6.4060 H   0  0  0  0  0  0  0  0  0  0  0  0
   -5.7195    0.5059   -4.6233 H   0  0  0  0  0  0  0  0  0  0  0  0
  1  7  1  0  0  0  0
  2  1  1  0  0  0  0
  2  8  1  0  0  0  0
  3  2  2  0  0  0  0
  4  5  2  0  0  0  0
  4  3  1  0  0  0  0
  5  6  1  0  0  0  0
  6 21  1  0  0  0  0
  6  1  2  0  0  0  0
  9  4  1  0  0  0  0
 10  5  1  0  0  0  0
 11  3  1  0  0  0  0
 11 12  1  0  0  0  0
 13 14  1  0  0  0  0
 13 11  1  0  0  0  0
 14 18  1  0  0  0  0
 15 13  2  0  0  0  0
 16 13  2  0  0  0  0
 17 12  1  0  0  0  0
 19 14  1  0  0  0  0
 20 14  1  0  0  0  0
 22 23  1  0  0  0  0
 22 21  1  0  0  0  0
 22 25  1  0  0  0  0
 24 22  1  0  0  0  0
M  RAD  2  12   2  17   2
M  END
