Coordinates from ORCA-job p-CH3O-Ph-N2-X-OTf-B3LYPG-6-31G_dp-scan-d09-49-n400
 OpenBabel08281821483D

 25 24  0  0  0  0  0  0  0  0999 V2000
   -2.1288   -0.8880   -5.3528 C   0  0  0  0  0  0  0  0  0  0  0  0
   -0.9863   -0.1470   -5.1434 C   0  0  0  0  0  0  0  0  0  0  0  0
   -1.1201    1.2515   -4.9985 C   0  0  0  0  0  0  0  0  0  0  0  0
   -2.3638    1.8936   -5.0616 C   0  0  0  0  0  0  0  0  0  0  0  0
   -3.5039    1.1378   -5.2833 C   0  0  0  0  0  0  0  0  0  0  0  0
   -3.3914   -0.2595   -5.4307 C   0  0  0  0  0  0  0  0  0  0  0  0
   -2.0796   -1.9643   -5.4745 H   0  0  0  0  0  0  0  0  0  0  0  0
   -0.0026   -0.5969   -5.0812 H   0  0  0  0  0  0  0  0  0  0  0  0
   -2.4243    2.9702   -4.9448 H   0  0  0  0  0  0  0  0  0  0  0  0
   -4.4658    1.6304   -5.3419 H   0  0  0  0  0  0  0  0  0  0  0  0
    0.0061    2.0189   -4.7841 N   0  0  0  0  0  0  0  0  0  0  0  0
    1.1168    2.2335   -4.6889 N   0  0  0  0  0  0  0  0  0  0  0  0
    2.3584    0.2468   -6.5373 S   0  0  0  0  0  0  0  0  0  0  0  0
    3.8910    1.2594   -6.8106 C   0  0  0  0  0  0  0  0  0  0  0  0
    2.7200   -1.1260   -6.9000 O   0  0  0  0  0  0  0  0  0  0  0  0
    1.3096    0.9283   -7.3188 O   0  0  0  0  0  0  0  0  0  0  0  0
    2.1326    0.4134   -5.0357 O   0  0  0  0  0  0  0  0  0  0  0  0
    3.6767    2.5304   -6.4285 F   0  0  0  0  0  0  0  0  0  0  0  0
    4.9149    0.7698   -6.1034 F   0  0  0  0  0  0  0  0  0  0  0  0
    4.2217    1.2561   -8.1076 F   0  0  0  0  0  0  0  0  0  0  0  0
   -4.4297   -1.0832   -5.6446 O   0  0  0  0  0  0  0  0  0  0  0  0
   -5.7480   -0.5427   -5.7518 C   0  0  0  0  0  0  0  0  0  0  0  0
   -6.4020   -1.3973   -5.9205 H   0  0  0  0  0  0  0  0  0  0  0  0
   -5.8236    0.1488   -6.5982 H   0  0  0  0  0  0  0  0  0  0  0  0
   -6.0435   -0.0340   -4.8273 H   0  0  0  0  0  0  0  0  0  0  0  0
  1  2  1  0  0  0  0
  2  8  1  0  0  0  0
  2  3  2  0  0  0  0
  3 11  1  0  0  0  0
  4  3  1  0  0  0  0
  4  9  1  0  0  0  0
  5  4  2  0  0  0  0
  6  1  2  0  0  0  0
  6  5  1  0  0  0  0
  7  1  1  0  0  0  0
 10  5  1  0  0  0  0
 11 12  1  0  0  0  0
 13 17  1  0  0  0  0
 14 13  1  0  0  0  0
 14 18  1  0  0  0  0
 14 19  1  0  0  0  0
 15 13  2  0  0  0  0
 16 13  2  0  0  0  0
 20 14  1  0  0  0  0
 21  6  1  0  0  0  0
 22 21  1  0  0  0  0
 22 25  1  0  0  0  0
 23 22  1  0  0  0  0
 24 22  1  0  0  0  0
M  RAD  3  11   2  12   3  17   2
M  END
