Coordinates from ORCA-job p-CH3O-Ph-N2-X-OTf-B3LYPG-6-31G_dp-scan-d09-49-n400
 OpenBabel08281821483D

 25 25  0  0  0  0  0  0  0  0999 V2000
   -2.1287   -1.1900   -5.3035 C   0  0  0  0  0  0  0  0  0  0  0  0
   -0.8537   -0.6515   -5.3313 C   0  0  0  0  0  0  0  0  0  0  0  0
   -0.6938    0.7337   -5.4685 C   0  0  0  0  0  0  0  0  0  0  0  0
   -1.8053    1.5699   -5.5847 C   0  0  0  0  0  0  0  0  0  0  0  0
   -3.0896    1.0317   -5.5437 C   0  0  0  0  0  0  0  0  0  0  0  0
   -3.2558   -0.3544   -5.4065 C   0  0  0  0  0  0  0  0  0  0  0  0
   -2.2850   -2.2579   -5.1962 H   0  0  0  0  0  0  0  0  0  0  0  0
    0.0166   -1.2914   -5.2480 H   0  0  0  0  0  0  0  0  0  0  0  0
   -1.6620    2.6394   -5.6980 H   0  0  0  0  0  0  0  0  0  0  0  0
   -3.9429    1.6926   -5.6276 H   0  0  0  0  0  0  0  0  0  0  0  0
    0.6191    1.3110   -5.4789 N   0  0  0  0  0  0  0  0  0  0  0  0
    0.9111    2.2478   -4.6284 N   0  0  0  0  0  0  0  0  0  0  0  0
    1.6880    1.0743   -6.9657 S   0  0  0  0  0  0  0  0  0  0  0  0
    3.4156    0.6928   -6.2613 C   0  0  0  0  0  0  0  0  0  0  0  0
    1.2023   -0.1926   -7.5013 O   0  0  0  0  0  0  0  0  0  0  0  0
    1.7209    2.2878   -7.7669 O   0  0  0  0  0  0  0  0  0  0  0  0
    2.1502    2.8325   -4.9218 O   0  0  0  0  0  0  0  0  0  0  0  0
    3.2967    0.2471   -5.0158 F   0  0  0  0  0  0  0  0  0  0  0  0
    3.9090   -0.2739   -7.0354 F   0  0  0  0  0  0  0  0  0  0  0  0
    4.1948    1.7514   -6.3239 F   0  0  0  0  0  0  0  0  0  0  0  0
   -4.4552   -0.9843   -5.3639 O   0  0  0  0  0  0  0  0  0  0  0  0
   -5.6410   -0.2034   -5.4578 C   0  0  0  0  0  0  0  0  0  0  0  0
   -6.4686   -0.9110   -5.4042 H   0  0  0  0  0  0  0  0  0  0  0  0
   -5.6895    0.3395   -6.4095 H   0  0  0  0  0  0  0  0  0  0  0  0
   -5.7189    0.5092   -4.6274 H   0  0  0  0  0  0  0  0  0  0  0  0
  1  7  1  0  0  0  0
  2  1  1  0  0  0  0
  2  8  1  0  0  0  0
  3  2  2  0  0  0  0
  4  5  2  0  0  0  0
  4  3  1  0  0  0  0
  5  6  1  0  0  0  0
  6 21  1  0  0  0  0
  6  1  2  0  0  0  0
  9  4  1  0  0  0  0
 10  5  1  0  0  0  0
 11  3  1  0  0  0  0
 11 12  1  0  0  0  0
 13 14  1  0  0  0  0
 13 11  1  0  0  0  0
 14 18  1  0  0  0  0
 15 13  2  0  0  0  0
 16 13  2  0  0  0  0
 17 12  1  0  0  0  0
 19 14  1  0  0  0  0
 20 14  1  0  0  0  0
 22 23  1  0  0  0  0
 22 21  1  0  0  0  0
 22 25  1  0  0  0  0
 24 22  1  0  0  0  0
M  RAD  2  12   2  17   2
M  END
