Coordinates from ORCA-job p-CH3O-Ph-N2-X-OTf-B3LYPG-6-31G_dp-scan-d09-49-n400
 OpenBabel08281821483D

 25 24  0  0  0  0  0  0  0  0999 V2000
   -2.0501   -0.8846   -5.2278 C   0  0  0  0  0  0  0  0  0  0  0  0
   -0.9007   -0.1392   -5.0925 C   0  0  0  0  0  0  0  0  0  0  0  0
   -1.0346    1.2659   -5.1006 C   0  0  0  0  0  0  0  0  0  0  0  0
   -2.2713    1.9193   -5.2515 C   0  0  0  0  0  0  0  0  0  0  0  0
   -3.4108    1.1498   -5.3961 C   0  0  0  0  0  0  0  0  0  0  0  0
   -3.3073   -0.2591   -5.3844 C   0  0  0  0  0  0  0  0  0  0  0  0
   -2.0093   -1.9682   -5.2346 H   0  0  0  0  0  0  0  0  0  0  0  0
    0.0977   -0.5690   -5.0029 H   0  0  0  0  0  0  0  0  0  0  0  0
   -2.3253    3.0026   -5.2620 H   0  0  0  0  0  0  0  0  0  0  0  0
   -4.3675    1.6398   -5.5205 H   0  0  0  0  0  0  0  0  0  0  0  0
    0.0743    2.0564   -4.9390 N   0  0  0  0  0  0  0  0  0  0  0  0
    0.9013    2.7737   -4.7275 N   0  0  0  0  0  0  0  0  0  0  0  0
    2.2309    0.1110   -6.6705 S   0  0  0  0  0  0  0  0  0  0  0  0
    3.7242    1.2140   -6.6045 C   0  0  0  0  0  0  0  0  0  0  0  0
    2.5891   -0.9591   -7.6078 O   0  0  0  0  0  0  0  0  0  0  0  0
    1.1511    1.0420   -7.1124 O   0  0  0  0  0  0  0  0  0  0  0  0
    2.0670   -0.2881   -5.2393 O   0  0  0  0  0  0  0  0  0  0  0  0
    3.4929    2.2562   -5.7711 F   0  0  0  0  0  0  0  0  0  0  0  0
    4.7974    0.5551   -6.1502 F   0  0  0  0  0  0  0  0  0  0  0  0
    4.0106    1.7129   -7.8145 F   0  0  0  0  0  0  0  0  0  0  0  0
   -4.3496   -1.0889   -5.5146 O   0  0  0  0  0  0  0  0  0  0  0  0
   -5.6646   -0.5569   -5.7008 C   0  0  0  0  0  0  0  0  0  0  0  0
   -6.3201   -1.4229   -5.7823 H   0  0  0  0  0  0  0  0  0  0  0  0
   -5.7226    0.0349   -6.6203 H   0  0  0  0  0  0  0  0  0  0  0  0
   -5.9681    0.0525   -4.8424 H   0  0  0  0  0  0  0  0  0  0  0  0
  1  2  2  0  0  0  0
  2  8  1  0  0  0  0
  3  2  1  0  0  0  0
  3 11  1  0  0  0  0
  4  3  2  0  0  0  0
  5  6  2  0  0  0  0
  5  4  1  0  0  0  0
  6  1  1  0  0  0  0
  7  1  1  0  0  0  0
  9  4  1  0  0  0  0
 10  5  1  0  0  0  0
 11 12  1  0  0  0  0
 13 14  1  0  0  0  0
 13 17  1  0  0  0  0
 14 19  1  0  0  0  0
 14 18  1  0  0  0  0
 15 13  2  0  0  0  0
 16 13  2  0  0  0  0
 20 14  1  0  0  0  0
 21  6  1  0  0  0  0
 22 21  1  0  0  0  0
 22 25  1  0  0  0  0
 23 22  1  0  0  0  0
 24 22  1  0  0  0  0
M  RAD  3  11   2  12   3  17   2
M  END
