Coordinates from ORCA-job p-CH3O-Ph-N2-X-OTf-B3LYPG-6-31G_dp-scan-d09-49-n400
 OpenBabel08281821483D

 25 24  0  0  0  0  0  0  0  0999 V2000
   -2.0852   -0.8967   -5.2470 C   0  0  0  0  0  0  0  0  0  0  0  0
   -0.9413   -0.1654   -5.0221 C   0  0  0  0  0  0  0  0  0  0  0  0
   -1.0672    1.2407   -4.9490 C   0  0  0  0  0  0  0  0  0  0  0  0
   -2.2924    1.9062   -5.1042 C   0  0  0  0  0  0  0  0  0  0  0  0
   -3.4296    1.1543   -5.3415 C   0  0  0  0  0  0  0  0  0  0  0  0
   -3.3322   -0.2525   -5.4143 C   0  0  0  0  0  0  0  0  0  0  0  0
   -2.0484   -1.9778   -5.3192 H   0  0  0  0  0  0  0  0  0  0  0  0
    0.0406   -0.6127   -4.9050 H   0  0  0  0  0  0  0  0  0  0  0  0
   -2.3408    2.9881   -5.0468 H   0  0  0  0  0  0  0  0  0  0  0  0
   -4.3795    1.6557   -5.4718 H   0  0  0  0  0  0  0  0  0  0  0  0
    0.0667    1.9718   -4.7163 N   0  0  0  0  0  0  0  0  0  0  0  0
    1.0870    2.3908   -4.5282 N   0  0  0  0  0  0  0  0  0  0  0  0
    2.2846    0.1502   -6.4995 S   0  0  0  0  0  0  0  0  0  0  0  0
    3.7179    1.2779   -6.8510 C   0  0  0  0  0  0  0  0  0  0  0  0
    2.6547   -1.1411   -7.0911 O   0  0  0  0  0  0  0  0  0  0  0  0
    1.1268    0.8596   -7.1020 O   0  0  0  0  0  0  0  0  0  0  0  0
    2.2240    0.1637   -4.9969 O   0  0  0  0  0  0  0  0  0  0  0  0
    3.4762    2.5069   -6.3472 F   0  0  0  0  0  0  0  0  0  0  0  0
    4.8436    0.8135   -6.2943 F   0  0  0  0  0  0  0  0  0  0  0  0
    3.9146    1.4026   -8.1706 F   0  0  0  0  0  0  0  0  0  0  0  0
   -4.3715   -1.0675   -5.6360 O   0  0  0  0  0  0  0  0  0  0  0  0
   -5.6761   -0.5170   -5.8390 C   0  0  0  0  0  0  0  0  0  0  0  0
   -6.3319   -1.3723   -5.9958 H   0  0  0  0  0  0  0  0  0  0  0  0
   -5.6973    0.1284   -6.7235 H   0  0  0  0  0  0  0  0  0  0  0  0
   -6.0092    0.0426   -4.9579 H   0  0  0  0  0  0  0  0  0  0  0  0
  1  2  2  0  0  0  0
  2  3  1  0  0  0  0
  2  8  1  0  0  0  0
  3 11  1  0  0  0  0
  4  9  1  0  0  0  0
  4  3  2  0  0  0  0
  5  4  1  0  0  0  0
  6  5  2  0  0  0  0
  6  1  1  0  0  0  0
  7  1  1  0  0  0  0
 10  5  1  0  0  0  0
 11 12  1  0  0  0  0
 13 17  1  0  0  0  0
 14 13  1  0  0  0  0
 14 18  1  0  0  0  0
 14 19  1  0  0  0  0
 15 13  2  0  0  0  0
 16 13  2  0  0  0  0
 20 14  1  0  0  0  0
 21  6  1  0  0  0  0
 22 21  1  0  0  0  0
 22 25  1  0  0  0  0
 23 22  1  0  0  0  0
 24 22  1  0  0  0  0
M  RAD  3  11   2  12   3  17   2
M  END
