Coordinates from ORCA-job p-CH3O-Ph-N2-X-OTf-B3LYPG-6-31G_dp-scan-d09-49-n400
 OpenBabel08281821483D

 25 24  0  0  0  0  0  0  0  0999 V2000
   -2.0690   -0.8974   -5.2252 C   0  0  0  0  0  0  0  0  0  0  0  0
   -0.9253   -0.1631   -5.0106 C   0  0  0  0  0  0  0  0  0  0  0  0
   -1.0526    1.2439   -4.9622 C   0  0  0  0  0  0  0  0  0  0  0  0
   -2.2782    1.9079   -5.1309 C   0  0  0  0  0  0  0  0  0  0  0  0
   -3.4142    1.1516   -5.3568 C   0  0  0  0  0  0  0  0  0  0  0  0
   -3.3161   -0.2567   -5.4051 C   0  0  0  0  0  0  0  0  0  0  0  0
   -2.0317   -1.9795   -5.2802 H   0  0  0  0  0  0  0  0  0  0  0  0
    0.0602   -0.6039   -4.8892 H   0  0  0  0  0  0  0  0  0  0  0  0
   -2.3272    2.9907   -5.0932 H   0  0  0  0  0  0  0  0  0  0  0  0
   -4.3638    1.6506   -5.4978 H   0  0  0  0  0  0  0  0  0  0  0  0
    0.0744    1.9856   -4.7378 N   0  0  0  0  0  0  0  0  0  0  0  0
    1.0508    2.4907   -4.5470 N   0  0  0  0  0  0  0  0  0  0  0  0
    2.2391    0.1554   -6.5308 S   0  0  0  0  0  0  0  0  0  0  0  0
    3.7076    1.2558   -6.8158 C   0  0  0  0  0  0  0  0  0  0  0  0
    2.5717   -1.1109   -7.1951 O   0  0  0  0  0  0  0  0  0  0  0  0
    1.1085    0.9336   -7.1042 O   0  0  0  0  0  0  0  0  0  0  0  0
    2.1681    0.0988   -5.0332 O   0  0  0  0  0  0  0  0  0  0  0  0
    3.5024    2.4612   -6.2409 F   0  0  0  0  0  0  0  0  0  0  0  0
    4.8179    0.7269   -6.2854 F   0  0  0  0  0  0  0  0  0  0  0  0
    3.9132    1.4526   -8.1255 F   0  0  0  0  0  0  0  0  0  0  0  0
   -4.3547   -1.0749   -5.6146 O   0  0  0  0  0  0  0  0  0  0  0  0
   -5.6594   -0.5287   -5.8300 C   0  0  0  0  0  0  0  0  0  0  0  0
   -6.3142   -1.3871   -5.9732 H   0  0  0  0  0  0  0  0  0  0  0  0
   -5.6789    0.1009   -6.7258 H   0  0  0  0  0  0  0  0  0  0  0  0
   -5.9944    0.0460   -4.9595 H   0  0  0  0  0  0  0  0  0  0  0  0
  1  2  2  0  0  0  0
  2  3  1  0  0  0  0
  2  8  1  0  0  0  0
  3 11  1  0  0  0  0
  4  9  1  0  0  0  0
  4  3  2  0  0  0  0
  5  4  1  0  0  0  0
  6  5  2  0  0  0  0
  6  1  1  0  0  0  0
  7  1  1  0  0  0  0
 10  5  1  0  0  0  0
 11 12  1  0  0  0  0
 13 17  1  0  0  0  0
 14 13  1  0  0  0  0
 14 19  1  0  0  0  0
 14 18  1  0  0  0  0
 15 13  2  0  0  0  0
 16 13  2  0  0  0  0
 20 14  1  0  0  0  0
 21  6  1  0  0  0  0
 22 21  1  0  0  0  0
 22 25  1  0  0  0  0
 23 22  1  0  0  0  0
 24 22  1  0  0  0  0
M  RAD  3  11   2  12   3  17   2
M  END
