Coordinates from ORCA-job p-CH3O-Ph-N2-X-OTf-B3LYPG-6-31G_dp-scan-d09-49-n400
 OpenBabel08281821483D

 25 24  0  0  0  0  0  0  0  0999 V2000
   -1.9999   -0.8149   -5.3240 C   0  0  0  0  0  0  0  0  0  0  0  0
   -0.8781   -0.0195   -5.2476 C   0  0  0  0  0  0  0  0  0  0  0  0
   -1.0795    1.3779   -5.2313 C   0  0  0  0  0  0  0  0  0  0  0  0
   -2.3533    1.9751   -5.2975 C   0  0  0  0  0  0  0  0  0  0  0  0
   -3.4619    1.1552   -5.3844 C   0  0  0  0  0  0  0  0  0  0  0  0
   -3.2916   -0.2483   -5.3982 C   0  0  0  0  0  0  0  0  0  0  0  0
   -1.9082   -1.8952   -5.3470 H   0  0  0  0  0  0  0  0  0  0  0  0
    0.1394   -0.4237   -5.2266 H   0  0  0  0  0  0  0  0  0  0  0  0
   -2.4577    3.0548   -5.2893 H   0  0  0  0  0  0  0  0  0  0  0  0
   -4.4463    1.6006   -5.4445 H   0  0  0  0  0  0  0  0  0  0  0  0
   -0.0019    2.2188   -5.1287 N   0  0  0  0  0  0  0  0  0  0  0  0
    0.8046    2.9735   -4.9728 N   0  0  0  0  0  0  0  0  0  0  0  0
    2.2871    0.0789   -6.8381 S   0  0  0  0  0  0  0  0  0  0  0  0
    3.7301    1.1270   -6.3169 C   0  0  0  0  0  0  0  0  0  0  0  0
    2.7700   -0.6710   -8.0015 O   0  0  0  0  0  0  0  0  0  0  0  0
    1.2310    1.1008   -7.1082 O   0  0  0  0  0  0  0  0  0  0  0  0
    2.0017   -0.7131   -5.6066 O   0  0  0  0  0  0  0  0  0  0  0  0
    3.3777    1.9127   -5.2667 F   0  0  0  0  0  0  0  0  0  0  0  0
    4.7688    0.3757   -5.9337 F   0  0  0  0  0  0  0  0  0  0  0  0
    4.1289    1.9341   -7.3096 F   0  0  0  0  0  0  0  0  0  0  0  0
   -4.3002   -1.1239   -5.4792 O   0  0  0  0  0  0  0  0  0  0  0  0
   -5.6472   -0.6534   -5.5841 C   0  0  0  0  0  0  0  0  0  0  0  0
   -6.2642   -1.5486   -5.6470 H   0  0  0  0  0  0  0  0  0  0  0  0
   -5.7831   -0.0496   -6.4876 H   0  0  0  0  0  0  0  0  0  0  0  0
   -5.9321   -0.0738   -4.6990 H   0  0  0  0  0  0  0  0  0  0  0  0
  1  2  2  0  0  0  0
  2  3  1  0  0  0  0
  2  8  1  0  0  0  0
  3 11  1  0  0  0  0
  4  9  1  0  0  0  0
  4  3  2  0  0  0  0
  5  4  1  0  0  0  0
  6  5  2  0  0  0  0
  6  1  1  0  0  0  0
  7  1  1  0  0  0  0
 10  5  1  0  0  0  0
 11 12  1  0  0  0  0
 13 14  1  0  0  0  0
 13 17  1  0  0  0  0
 14 19  1  0  0  0  0
 14 18  1  0  0  0  0
 15 13  2  0  0  0  0
 16 13  2  0  0  0  0
 20 14  1  0  0  0  0
 21  6  1  0  0  0  0
 22 21  1  0  0  0  0
 22 25  1  0  0  0  0
 23 22  1  0  0  0  0
 24 22  1  0  0  0  0
M  RAD  3  11   2  12   3  17   2
M  END
