Coordinates from ORCA-job p-CH3O-Ph-N2-X-OTf-B3LYPG-6-31G_dp-scan-d09-49-n400
 OpenBabel08281821483D

 25 25  0  0  0  0  0  0  0  0999 V2000
   -1.9708   -0.8043   -4.3910 C   0  0  0  0  0  0  0  0  0  0  0  0
   -0.7117   -0.2437   -4.5477 C   0  0  0  0  0  0  0  0  0  0  0  0
   -0.5114    0.8427   -5.4176 C   0  0  0  0  0  0  0  0  0  0  0  0
   -1.6083    1.3532   -6.1253 C   0  0  0  0  0  0  0  0  0  0  0  0
   -2.8729    0.7830   -5.9879 C   0  0  0  0  0  0  0  0  0  0  0  0
   -3.0618   -0.2972   -5.1141 C   0  0  0  0  0  0  0  0  0  0  0  0
   -2.1359   -1.6436   -3.7236 H   0  0  0  0  0  0  0  0  0  0  0  0
    0.1388   -0.6453   -4.0061 H   0  0  0  0  0  0  0  0  0  0  0  0
   -1.4635    2.1890   -6.8002 H   0  0  0  0  0  0  0  0  0  0  0  0
   -3.6998    1.1918   -6.5555 H   0  0  0  0  0  0  0  0  0  0  0  0
    0.7766    1.4277   -5.4728 N   0  0  0  0  0  0  0  0  0  0  0  0
    1.0801    2.5518   -4.0279 N   0  0  0  0  0  0  0  0  0  0  0  0
    1.6093    1.6718   -6.8591 S   0  0  0  0  0  0  0  0  0  0  0  0
    2.6330    0.1133   -6.9816 C   0  0  0  0  0  0  0  0  0  0  0  0
    0.7792    1.6821   -8.0628 O   0  0  0  0  0  0  0  0  0  0  0  0
    2.5651    2.7510   -6.5897 O   0  0  0  0  0  0  0  0  0  0  0  0
    1.9964    2.9988   -3.9877 O   0  0  0  0  0  0  0  0  0  0  0  0
    1.8282   -0.9539   -7.0245 F   0  0  0  0  0  0  0  0  0  0  0  0
    3.3790    0.1503   -8.0869 F   0  0  0  0  0  0  0  0  0  0  0  0
    3.4341    0.0112   -5.9142 F   0  0  0  0  0  0  0  0  0  0  0  0
   -4.2542   -0.9187   -4.8972 O   0  0  0  0  0  0  0  0  0  0  0  0
   -5.3923   -0.4669   -5.6164 C   0  0  0  0  0  0  0  0  0  0  0  0
   -6.2200   -1.1020   -5.2983 H   0  0  0  0  0  0  0  0  0  0  0  0
   -5.2524   -0.5704   -6.7000 H   0  0  0  0  0  0  0  0  0  0  0  0
   -5.6304    0.5786   -5.3820 H   0  0  0  0  0  0  0  0  0  0  0  0
  1  7  1  0  0  0  0
  2  1  1  0  0  0  0
  2  8  1  0  0  0  0
  3  2  2  0  0  0  0
  4  5  2  0  0  0  0
  4  3  1  0  0  0  0
  5  6  1  0  0  0  0
  6 21  1  0  0  0  0
  6  1  2  0  0  0  0
  9  4  1  0  0  0  0
 10  5  1  0  0  0  0
 11  3  1  0  0  0  0
 11 12  1  0  0  0  0
 12 17  2  0  0  0  0
 13 16  2  0  0  0  0
 13 11  1  0  0  0  0
 14 13  1  0  0  0  0
 14 20  1  0  0  0  0
 15 13  2  0  0  0  0
 18 14  1  0  0  0  0
 19 14  1  0  0  0  0
 22 25  1  0  0  0  0
 22 23  1  0  0  0  0
 22 21  1  0  0  0  0
 24 22  1  0  0  0  0
M  END
