Coordinates from ORCA-job p-CH3O-Ph-N2-X-OTf-B3LYPG-6-31G_dp-scan-d09-49-n400
 OpenBabel08281821483D

 25 25  0  0  0  0  0  0  0  0999 V2000
   -3.1116   -1.5931   -5.5693 C   0  0  0  0  0  0  0  0  0  0  0  0
   -1.7748   -1.4642   -5.8996 C   0  0  0  0  0  0  0  0  0  0  0  0
   -1.1904   -0.1892   -5.9397 C   0  0  0  0  0  0  0  0  0  0  0  0
   -1.9467    0.9567   -5.6526 C   0  0  0  0  0  0  0  0  0  0  0  0
   -3.2886    0.8284   -5.3237 C   0  0  0  0  0  0  0  0  0  0  0  0
   -3.8798   -0.4495   -5.2792 C   0  0  0  0  0  0  0  0  0  0  0  0
   -3.5931   -2.5637   -5.5292 H   0  0  0  0  0  0  0  0  0  0  0  0
   -1.1663   -2.3317   -6.1297 H   0  0  0  0  0  0  0  0  0  0  0  0
   -1.4814    1.9361   -5.6921 H   0  0  0  0  0  0  0  0  0  0  0  0
   -3.8667    1.7175   -5.1051 H   0  0  0  0  0  0  0  0  0  0  0  0
    0.1758   -0.1285   -6.2863 N   0  0  0  0  0  0  0  0  0  0  0  0
    0.8470    0.8336   -6.3575 N   0  0  0  0  0  0  0  0  0  0  0  0
    3.4115    1.3835   -7.2969 S   0  0  0  0  0  0  0  0  0  0  0  0
    4.0331    1.9824   -5.6477 C   0  0  0  0  0  0  0  0  0  0  0  0
    4.5588    0.7950   -7.9767 O   0  0  0  0  0  0  0  0  0  0  0  0
    2.6737    2.5008   -7.8749 O   0  0  0  0  0  0  0  0  0  0  0  0
    2.4563    0.2107   -6.8415 O   0  0  0  0  0  0  0  0  0  0  0  0
    3.0054    2.3938   -4.8920 F   0  0  0  0  0  0  0  0  0  0  0  0
    4.6750    1.0026   -5.0074 F   0  0  0  0  0  0  0  0  0  0  0  0
    4.8705    3.0055   -5.8362 F   0  0  0  0  0  0  0  0  0  0  0  0
   -5.1722   -0.6799   -4.9705 O   0  0  0  0  0  0  0  0  0  0  0  0
   -6.0242    0.4253   -4.6745 C   0  0  0  0  0  0  0  0  0  0  0  0
   -7.0020   -0.0051   -4.4602 H   0  0  0  0  0  0  0  0  0  0  0  0
   -6.1053    1.1055   -5.5305 H   0  0  0  0  0  0  0  0  0  0  0  0
   -5.6697    0.9777   -3.7968 H   0  0  0  0  0  0  0  0  0  0  0  0
  1  7  1  0  0  0  0
  1  6  2  0  0  0  0
  2  1  1  0  0  0  0
  3  2  2  0  0  0  0
  3  4  1  0  0  0  0
  4  5  2  0  0  0  0
  5  6  1  0  0  0  0
  5 10  1  0  0  0  0
  6 21  1  0  0  0  0
  8  2  1  0  0  0  0
  9  4  1  0  0  0  0
 11  3  1  0  0  0  0
 12 11  1  0  0  0  0
 13 17  1  0  0  0  0
 13 14  1  0  0  0  0
 14 19  1  0  0  0  0
 14 18  1  0  0  0  0
 15 13  2  0  0  0  0
 16 13  2  0  0  0  0
 17 12  1  0  0  0  0
 20 14  1  0  0  0  0
 21 22  1  0  0  0  0
 22 23  1  0  0  0  0
 22 25  1  0  0  0  0
 24 22  1  0  0  0  0
M  RAD  2  11   2  12   2
M  END
