Coordinates from ORCA-job p-CH3O-Ph-N2-X-OTf-B3LYPG-6-31G_dp-scan-d09-49-n400
 OpenBabel08281821483D

 25 24  0  0  0  0  0  0  0  0999 V2000
   -2.1352   -0.8851   -5.3684 C   0  0  0  0  0  0  0  0  0  0  0  0
   -0.9931   -0.1404   -5.1681 C   0  0  0  0  0  0  0  0  0  0  0  0
   -1.1302    1.2573   -5.0182 C   0  0  0  0  0  0  0  0  0  0  0  0
   -2.3772    1.8942   -5.0669 C   0  0  0  0  0  0  0  0  0  0  0  0
   -3.5170    1.1348   -5.2783 C   0  0  0  0  0  0  0  0  0  0  0  0
   -3.4010   -0.2616   -5.4307 C   0  0  0  0  0  0  0  0  0  0  0  0
   -2.0830   -1.9609   -5.4933 H   0  0  0  0  0  0  0  0  0  0  0  0
   -0.0076   -0.5875   -5.1165 H   0  0  0  0  0  0  0  0  0  0  0  0
   -2.4404    2.9702   -4.9463 H   0  0  0  0  0  0  0  0  0  0  0  0
   -4.4812    1.6241   -5.3252 H   0  0  0  0  0  0  0  0  0  0  0  0
   -0.0059    2.0314   -4.8123 N   0  0  0  0  0  0  0  0  0  0  0  0
    1.1089    2.2360   -4.7289 N   0  0  0  0  0  0  0  0  0  0  0  0
    2.3674    0.2646   -6.5600 S   0  0  0  0  0  0  0  0  0  0  0  0
    3.9264    1.2486   -6.7838 C   0  0  0  0  0  0  0  0  0  0  0  0
    2.7123   -1.1135   -6.9184 O   0  0  0  0  0  0  0  0  0  0  0  0
    1.3523    0.9698   -7.3633 O   0  0  0  0  0  0  0  0  0  0  0  0
    2.1057    0.4261   -5.0621 O   0  0  0  0  0  0  0  0  0  0  0  0
    3.7245    2.5222   -6.4049 F   0  0  0  0  0  0  0  0  0  0  0  0
    4.9184    0.7376   -6.0467 F   0  0  0  0  0  0  0  0  0  0  0  0
    4.2966    1.2411   -8.0700 F   0  0  0  0  0  0  0  0  0  0  0  0
   -4.4385   -1.0887   -5.6355 O   0  0  0  0  0  0  0  0  0  0  0  0
   -5.7600   -0.5530   -5.7240 C   0  0  0  0  0  0  0  0  0  0  0  0
   -6.4129   -1.4096   -5.8875 H   0  0  0  0  0  0  0  0  0  0  0  0
   -5.8492    0.1413   -6.5667 H   0  0  0  0  0  0  0  0  0  0  0  0
   -6.0457   -0.0489   -4.7939 H   0  0  0  0  0  0  0  0  0  0  0  0
  1  2  1  0  0  0  0
  2  8  1  0  0  0  0
  2  3  2  0  0  0  0
  3 11  1  0  0  0  0
  4  3  1  0  0  0  0
  4  9  1  0  0  0  0
  5  4  2  0  0  0  0
  6  1  2  0  0  0  0
  6  5  1  0  0  0  0
  7  1  1  0  0  0  0
 10  5  1  0  0  0  0
 11 12  1  0  0  0  0
 13 17  1  0  0  0  0
 14 13  1  0  0  0  0
 14 18  1  0  0  0  0
 14 19  1  0  0  0  0
 15 13  2  0  0  0  0
 16 13  2  0  0  0  0
 20 14  1  0  0  0  0
 21  6  1  0  0  0  0
 22 21  1  0  0  0  0
 22 25  1  0  0  0  0
 23 22  1  0  0  0  0
 24 22  1  0  0  0  0
M  RAD  3  11   2  12   3  17   2
M  END
