Coordinates from ORCA-job p-CH3O-Ph-N2-X-OTf-B3LYPG-6-31G_dp-scan-d09-49-n400
 OpenBabel08281821483D

 25 24  0  0  0  0  0  0  0  0999 V2000
   -2.2068   -0.8764   -5.4635 C   0  0  0  0  0  0  0  0  0  0  0  0
   -1.0663   -0.1082   -5.3588 C   0  0  0  0  0  0  0  0  0  0  0  0
   -1.2141    1.2870   -5.1935 C   0  0  0  0  0  0  0  0  0  0  0  0
   -2.4766    1.8923   -5.1323 C   0  0  0  0  0  0  0  0  0  0  0  0
   -3.6164    1.1107   -5.2420 C   0  0  0  0  0  0  0  0  0  0  0  0
   -3.4861   -0.2817   -5.4090 C   0  0  0  0  0  0  0  0  0  0  0  0
   -2.1434   -1.9509   -5.5952 H   0  0  0  0  0  0  0  0  0  0  0  0
   -0.0723   -0.5374   -5.3975 H   0  0  0  0  0  0  0  0  0  0  0  0
   -2.5509    2.9668   -5.0039 H   0  0  0  0  0  0  0  0  0  0  0  0
   -4.5906    1.5804   -5.1995 H   0  0  0  0  0  0  0  0  0  0  0  0
   -0.1043    2.1109   -5.0872 N   0  0  0  0  0  0  0  0  0  0  0  0
    1.0323    2.2617   -5.1030 N   0  0  0  0  0  0  0  0  0  0  0  0
    2.5000    0.4133   -6.7791 S   0  0  0  0  0  0  0  0  0  0  0  0
    4.1787    1.1689   -6.5300 C   0  0  0  0  0  0  0  0  0  0  0  0
    2.7364   -0.9849   -7.1406 O   0  0  0  0  0  0  0  0  0  0  0  0
    1.8066    1.2981   -7.7235 O   0  0  0  0  0  0  0  0  0  0  0  0
    1.9057    0.5226   -5.3578 O   0  0  0  0  0  0  0  0  0  0  0  0
    4.0530    2.4267   -6.0816 F   0  0  0  0  0  0  0  0  0  0  0  0
    4.8833    0.4637   -5.6393 F   0  0  0  0  0  0  0  0  0  0  0  0
    4.8444    1.1901   -7.6899 F   0  0  0  0  0  0  0  0  0  0  0  0
   -4.5209   -1.1319   -5.5237 O   0  0  0  0  0  0  0  0  0  0  0  0
   -5.8547   -0.6235   -5.4853 C   0  0  0  0  0  0  0  0  0  0  0  0
   -6.5031   -1.4916   -5.5987 H   0  0  0  0  0  0  0  0  0  0  0  0
   -6.0349    0.0776   -6.3078 H   0  0  0  0  0  0  0  0  0  0  0  0
   -6.0648   -0.1341   -4.5275 H   0  0  0  0  0  0  0  0  0  0  0  0
  1  6  2  0  0  0  0
  1  2  1  0  0  0  0
  2  3  2  0  0  0  0
  3  4  1  0  0  0  0
  3 11  1  0  0  0  0
  4  9  1  0  0  0  0
  5 10  1  0  0  0  0
  5  4  2  0  0  0  0
  6  5  1  0  0  0  0
  7  1  1  0  0  0  0
  8  2  1  0  0  0  0
 12 11  2  0  0  0  0
 13 14  1  0  0  0  0
 13 17  1  0  0  0  0
 14 18  1  0  0  0  0
 14 19  1  0  0  0  0
 15 13  2  0  0  0  0
 16 13  2  0  0  0  0
 20 14  1  0  0  0  0
 21 22  1  0  0  0  0
 21  6  1  0  0  0  0
 22 25  1  0  0  0  0
 23 22  1  0  0  0  0
 24 22  1  0  0  0  0
M  RAD  2  12   2  17   2
M  END
