Coordinates from ORCA-job p-CH3O-Ph-N2-X-OTf-B3LYPG-6-31G_dp-scan-d09-49-n400
 OpenBabel08281821483D

 25 24  0  0  0  0  0  0  0  0999 V2000
   -1.9782   -0.7921   -5.3865 C   0  0  0  0  0  0  0  0  0  0  0  0
   -0.8664    0.0202   -5.3459 C   0  0  0  0  0  0  0  0  0  0  0  0
   -1.0894    1.4143   -5.3132 C   0  0  0  0  0  0  0  0  0  0  0  0
   -2.3752    1.9904   -5.3281 C   0  0  0  0  0  0  0  0  0  0  0  0
   -3.4730    1.1537   -5.3797 C   0  0  0  0  0  0  0  0  0  0  0  0
   -3.2808   -0.2468   -5.4091 C   0  0  0  0  0  0  0  0  0  0  0  0
   -1.8690   -1.8704   -5.4198 H   0  0  0  0  0  0  0  0  0  0  0  0
    0.1536   -0.3792   -5.3646 H   0  0  0  0  0  0  0  0  0  0  0  0
   -2.4965    3.0683   -5.3079 H   0  0  0  0  0  0  0  0  0  0  0  0
   -4.4659    1.5836   -5.4000 H   0  0  0  0  0  0  0  0  0  0  0  0
   -0.0264    2.2773   -5.2418 N   0  0  0  0  0  0  0  0  0  0  0  0
    0.7634    3.0545   -5.1119 N   0  0  0  0  0  0  0  0  0  0  0  0
    2.3228    0.0886   -6.9140 S   0  0  0  0  0  0  0  0  0  0  0  0
    3.7019    1.0842   -6.1652 C   0  0  0  0  0  0  0  0  0  0  0  0
    2.9058   -0.5131   -8.1164 O   0  0  0  0  0  0  0  0  0  0  0  0
    1.2754    1.1300   -7.1438 O   0  0  0  0  0  0  0  0  0  0  0  0
    1.9583   -0.8453   -5.8106 O   0  0  0  0  0  0  0  0  0  0  0  0
    3.2474    1.7563   -5.0748 F   0  0  0  0  0  0  0  0  0  0  0  0
    4.7150    0.3052   -5.7701 F   0  0  0  0  0  0  0  0  0  0  0  0
    4.1731    1.9926   -7.0309 F   0  0  0  0  0  0  0  0  0  0  0  0
   -4.2774   -1.1381   -5.4588 O   0  0  0  0  0  0  0  0  0  0  0  0
   -5.6349   -0.6890   -5.5092 C   0  0  0  0  0  0  0  0  0  0  0  0
   -6.2393   -1.5936   -5.5563 H   0  0  0  0  0  0  0  0  0  0  0  0
   -5.8145   -0.0806   -6.4020 H   0  0  0  0  0  0  0  0  0  0  0  0
   -5.8956   -0.1209   -4.6094 H   0  0  0  0  0  0  0  0  0  0  0  0
  1  2  1  0  0  0  0
  2  3  2  0  0  0  0
  3 11  1  0  0  0  0
  4  3  1  0  0  0  0
  4  9  1  0  0  0  0
  5  4  2  0  0  0  0
  6  1  2  0  0  0  0
  6  5  1  0  0  0  0
  7  1  1  0  0  0  0
  8  2  1  0  0  0  0
 10  5  1  0  0  0  0
 11 12  1  0  0  0  0
 13 14  1  0  0  0  0
 13 17  1  0  0  0  0
 14 19  1  0  0  0  0
 14 18  1  0  0  0  0
 15 13  2  0  0  0  0
 16 13  2  0  0  0  0
 20 14  1  0  0  0  0
 21  6  1  0  0  0  0
 22 21  1  0  0  0  0
 22 25  1  0  0  0  0
 23 22  1  0  0  0  0
 24 22  1  0  0  0  0
M  RAD  3  11   2  12   3  17   2
M  END
