Coordinates from ORCA-job p-CH3O-Ph-N2-X-OTf-B3LYPG-6-31G_dp-scan-d09-49-n400
 OpenBabel08281821483D

 25 25  0  0  0  0  0  0  0  0999 V2000
   -3.1022   -1.6120   -5.5507 C   0  0  0  0  0  0  0  0  0  0  0  0
   -1.7670   -1.5228   -5.9025 C   0  0  0  0  0  0  0  0  0  0  0  0
   -1.1474   -0.2661   -5.9809 C   0  0  0  0  0  0  0  0  0  0  0  0
   -1.8735    0.9028   -5.7080 C   0  0  0  0  0  0  0  0  0  0  0  0
   -3.2136    0.8164   -5.3570 C   0  0  0  0  0  0  0  0  0  0  0  0
   -3.8369   -0.4440   -5.2753 C   0  0  0  0  0  0  0  0  0  0  0  0
   -3.6066   -2.5693   -5.4821 H   0  0  0  0  0  0  0  0  0  0  0  0
   -1.1836   -2.4103   -6.1216 H   0  0  0  0  0  0  0  0  0  0  0  0
   -1.3868    1.8700   -5.7758 H   0  0  0  0  0  0  0  0  0  0  0  0
   -3.7654    1.7249   -5.1502 H   0  0  0  0  0  0  0  0  0  0  0  0
    0.2180   -0.2673   -6.3503 N   0  0  0  0  0  0  0  0  0  0  0  0
    0.8517    0.7363   -6.4310 N   0  0  0  0  0  0  0  0  0  0  0  0
    3.3403    1.4475   -7.2861 S   0  0  0  0  0  0  0  0  0  0  0  0
    3.9026    1.9925   -5.5951 C   0  0  0  0  0  0  0  0  0  0  0  0
    4.5096    0.8981   -7.9559 O   0  0  0  0  0  0  0  0  0  0  0  0
    2.5788    2.5574   -7.8410 O   0  0  0  0  0  0  0  0  0  0  0  0
    2.4030    0.2130   -6.8961 O   0  0  0  0  0  0  0  0  0  0  0  0
    2.8461    2.3495   -4.8552 F   0  0  0  0  0  0  0  0  0  0  0  0
    4.5499    1.0012   -4.9817 F   0  0  0  0  0  0  0  0  0  0  0  0
    4.7196    3.0395   -5.7267 F   0  0  0  0  0  0  0  0  0  0  0  0
   -5.1317   -0.6340   -4.9429 O   0  0  0  0  0  0  0  0  0  0  0  0
   -5.9478    0.4996   -4.6584 C   0  0  0  0  0  0  0  0  0  0  0  0
   -6.9340    0.1019   -4.4200 H   0  0  0  0  0  0  0  0  0  0  0  0
   -6.0238    1.1643   -5.5270 H   0  0  0  0  0  0  0  0  0  0  0  0
   -5.5651    1.0612   -3.7983 H   0  0  0  0  0  0  0  0  0  0  0  0
  1  7  1  0  0  0  0
  1  6  2  0  0  0  0
  2  1  1  0  0  0  0
  3  2  2  0  0  0  0
  3  4  1  0  0  0  0
  4  5  2  0  0  0  0
  5  6  1  0  0  0  0
  5 10  1  0  0  0  0
  6 21  1  0  0  0  0
  8  2  1  0  0  0  0
  9  4  1  0  0  0  0
 11  3  1  0  0  0  0
 12 11  1  0  0  0  0
 13 17  1  0  0  0  0
 13 14  1  0  0  0  0
 14 19  1  0  0  0  0
 14 18  1  0  0  0  0
 15 13  2  0  0  0  0
 16 13  2  0  0  0  0
 17 12  1  0  0  0  0
 20 14  1  0  0  0  0
 21 22  1  0  0  0  0
 22 23  1  0  0  0  0
 22 25  1  0  0  0  0
 24 22  1  0  0  0  0
M  RAD  2  11   2  12   2
M  END
