Coordinates from ORCA-job p-CH3O-Ph-N2-X-OTf-B3LYPG-6-31G_dp-scan-d09-49-n400
 OpenBabel08281821483D

 25 24  0  0  0  0  0  0  0  0999 V2000
   -2.0629   -0.9078   -5.2143 C   0  0  0  0  0  0  0  0  0  0  0  0
   -0.9076   -0.1766   -5.0556 C   0  0  0  0  0  0  0  0  0  0  0  0
   -1.0229    1.2303   -5.0568 C   0  0  0  0  0  0  0  0  0  0  0  0
   -2.2485    1.8988   -5.2249 C   0  0  0  0  0  0  0  0  0  0  0  0
   -3.3951    1.1444   -5.3930 C   0  0  0  0  0  0  0  0  0  0  0  0
   -3.3095   -0.2655   -5.3882 C   0  0  0  0  0  0  0  0  0  0  0  0
   -2.0350   -1.9916   -5.2276 H   0  0  0  0  0  0  0  0  0  0  0  0
    0.0825   -0.6164   -4.9491 H   0  0  0  0  0  0  0  0  0  0  0  0
   -2.2889    2.9827   -5.2300 H   0  0  0  0  0  0  0  0  0  0  0  0
   -4.3434    1.6470   -5.5305 H   0  0  0  0  0  0  0  0  0  0  0  0
    0.0947    2.0026   -4.8732 N   0  0  0  0  0  0  0  0  0  0  0  0
    0.9463    2.6855   -4.6492 N   0  0  0  0  0  0  0  0  0  0  0  0
    2.2183    0.1392   -6.6105 S   0  0  0  0  0  0  0  0  0  0  0  0
    3.7099    1.2434   -6.6876 C   0  0  0  0  0  0  0  0  0  0  0  0
    2.5648   -1.0311   -7.4252 O   0  0  0  0  0  0  0  0  0  0  0  0
    1.1277    1.0119   -7.1319 O   0  0  0  0  0  0  0  0  0  0  0  0
    2.0761   -0.0996   -5.1399 O   0  0  0  0  0  0  0  0  0  0  0  0
    3.4833    2.3746   -5.9803 F   0  0  0  0  0  0  0  0  0  0  0  0
    4.7884    0.6424   -6.1695 F   0  0  0  0  0  0  0  0  0  0  0  0
    3.9842    1.5971   -7.9505 F   0  0  0  0  0  0  0  0  0  0  0  0
   -4.3595   -1.0817   -5.5409 O   0  0  0  0  0  0  0  0  0  0  0  0
   -5.6645   -0.5321   -5.7460 C   0  0  0  0  0  0  0  0  0  0  0  0
   -6.3295   -1.3892   -5.8425 H   0  0  0  0  0  0  0  0  0  0  0  0
   -5.6999    0.0647   -6.6635 H   0  0  0  0  0  0  0  0  0  0  0  0
   -5.9742    0.0772   -4.8896 H   0  0  0  0  0  0  0  0  0  0  0  0
  1  2  2  0  0  0  0
  2  8  1  0  0  0  0
  3  2  1  0  0  0  0
  3 11  1  0  0  0  0
  4  3  2  0  0  0  0
  5  6  2  0  0  0  0
  5  4  1  0  0  0  0
  6  1  1  0  0  0  0
  7  1  1  0  0  0  0
  9  4  1  0  0  0  0
 10  5  1  0  0  0  0
 11 12  1  0  0  0  0
 13 17  1  0  0  0  0
 14 13  1  0  0  0  0
 14 19  1  0  0  0  0
 14 18  1  0  0  0  0
 15 13  2  0  0  0  0
 16 13  2  0  0  0  0
 20 14  1  0  0  0  0
 21  6  1  0  0  0  0
 22 21  1  0  0  0  0
 22 25  1  0  0  0  0
 23 22  1  0  0  0  0
 24 22  1  0  0  0  0
M  RAD  3  11   2  12   3  17   2
M  END
