Coordinates from ORCA-job p-CH3O-Ph-N2-X-OTf-B3LYPG-6-31G_dp-scan-d09-49-n400
 OpenBabel08281821483D

 25 24  0  0  0  0  0  0  0  0999 V2000
   -2.0118   -0.8296   -5.3006 C   0  0  0  0  0  0  0  0  0  0  0  0
   -0.8835   -0.0452   -5.2098 C   0  0  0  0  0  0  0  0  0  0  0  0
   -1.0706    1.3542   -5.1986 C   0  0  0  0  0  0  0  0  0  0  0  0
   -2.3367    1.9640   -5.2847 C   0  0  0  0  0  0  0  0  0  0  0  0
   -3.4524    1.1551   -5.3861 C   0  0  0  0  0  0  0  0  0  0  0  0
   -3.2965   -0.2499   -5.3945 C   0  0  0  0  0  0  0  0  0  0  0  0
   -1.9312   -1.9108   -5.3201 H   0  0  0  0  0  0  0  0  0  0  0  0
    0.1306   -0.4548   -5.1731 H   0  0  0  0  0  0  0  0  0  0  0  0
   -2.4302    3.0448   -5.2804 H   0  0  0  0  0  0  0  0  0  0  0  0
   -4.4312    1.6104   -5.4616 H   0  0  0  0  0  0  0  0  0  0  0  0
    0.0144    2.1840   -5.0817 N   0  0  0  0  0  0  0  0  0  0  0  0
    0.8233    2.9327   -4.9098 N   0  0  0  0  0  0  0  0  0  0  0  0
    2.2743    0.0779   -6.7992 S   0  0  0  0  0  0  0  0  0  0  0  0
    3.7348    1.1493   -6.3862 C   0  0  0  0  0  0  0  0  0  0  0  0
    2.7176   -0.7417   -7.9314 O   0  0  0  0  0  0  0  0  0  0  0  0
    1.2103    1.0844   -7.0949 O   0  0  0  0  0  0  0  0  0  0  0  0
    2.0271   -0.6391   -5.5142 O   0  0  0  0  0  0  0  0  0  0  0  0
    3.4226    1.9844   -5.3632 F   0  0  0  0  0  0  0  0  0  0  0  0
    4.7886    0.4161   -6.0082 F   0  0  0  0  0  0  0  0  0  0  0  0
    4.0934    1.9062   -7.4323 F   0  0  0  0  0  0  0  0  0  0  0  0
   -4.3127   -1.1155   -5.4881 O   0  0  0  0  0  0  0  0  0  0  0  0
   -5.6531   -0.6314   -5.6136 C   0  0  0  0  0  0  0  0  0  0  0  0
   -6.2785   -1.5203   -5.6821 H   0  0  0  0  0  0  0  0  0  0  0  0
   -5.7699   -0.0295   -6.5210 H   0  0  0  0  0  0  0  0  0  0  0  0
   -5.9442   -0.0456   -4.7347 H   0  0  0  0  0  0  0  0  0  0  0  0
  1  2  2  0  0  0  0
  2  3  1  0  0  0  0
  2  8  1  0  0  0  0
  3 11  1  0  0  0  0
  4  9  1  0  0  0  0
  4  3  2  0  0  0  0
  5  4  1  0  0  0  0
  6  5  2  0  0  0  0
  6  1  1  0  0  0  0
  7  1  1  0  0  0  0
 10  5  1  0  0  0  0
 11 12  1  0  0  0  0
 13 14  1  0  0  0  0
 13 17  1  0  0  0  0
 14 19  1  0  0  0  0
 14 18  1  0  0  0  0
 15 13  2  0  0  0  0
 16 13  2  0  0  0  0
 20 14  1  0  0  0  0
 21  6  1  0  0  0  0
 22 21  1  0  0  0  0
 22 25  1  0  0  0  0
 23 22  1  0  0  0  0
 24 22  1  0  0  0  0
M  RAD  3  11   2  12   3  17   2
M  END
