Coordinates from ORCA-job p-CH3O-Ph-N2-X-OTf-B3LYPG-6-31G_dp-scan-d09-49-n400
 OpenBabel08281821483D

 25 24  0  0  0  0  0  0  0  0999 V2000
   -2.0821   -0.8984   -5.2404 C   0  0  0  0  0  0  0  0  0  0  0  0
   -0.9373   -0.1681   -5.0178 C   0  0  0  0  0  0  0  0  0  0  0  0
   -1.0612    1.2385   -4.9515 C   0  0  0  0  0  0  0  0  0  0  0  0
   -2.2852    1.9057   -5.1112 C   0  0  0  0  0  0  0  0  0  0  0  0
   -3.4232    1.1544   -5.3462 C   0  0  0  0  0  0  0  0  0  0  0  0
   -3.3279   -0.2530   -5.4121 C   0  0  0  0  0  0  0  0  0  0  0  0
   -2.0470   -1.9799   -5.3078 H   0  0  0  0  0  0  0  0  0  0  0  0
    0.0447   -0.6152   -4.8987 H   0  0  0  0  0  0  0  0  0  0  0  0
   -2.3321    2.9880   -5.0593 H   0  0  0  0  0  0  0  0  0  0  0  0
   -4.3722    1.6567   -5.4801 H   0  0  0  0  0  0  0  0  0  0  0  0
    0.0723    1.9698   -4.7202 N   0  0  0  0  0  0  0  0  0  0  0  0
    1.0830    2.4082   -4.5299 N   0  0  0  0  0  0  0  0  0  0  0  0
    2.2759    0.1455   -6.5049 S   0  0  0  0  0  0  0  0  0  0  0  0
    3.7078    1.2788   -6.8440 C   0  0  0  0  0  0  0  0  0  0  0  0
    2.6479   -1.1380   -7.1120 O   0  0  0  0  0  0  0  0  0  0  0  0
    1.1176    0.8604   -7.1012 O   0  0  0  0  0  0  0  0  0  0  0  0
    2.2141    0.1448   -5.0031 O   0  0  0  0  0  0  0  0  0  0  0  0
    3.4645    2.5023   -6.3268 F   0  0  0  0  0  0  0  0  0  0  0  0
    4.8342    0.8103   -6.2921 F   0  0  0  0  0  0  0  0  0  0  0  0
    3.9049    1.4188   -8.1621 F   0  0  0  0  0  0  0  0  0  0  0  0
   -4.3682   -1.0672   -5.6311 O   0  0  0  0  0  0  0  0  0  0  0  0
   -5.6718   -0.5157   -5.8385 C   0  0  0  0  0  0  0  0  0  0  0  0
   -6.3287   -1.3707   -5.9921 H   0  0  0  0  0  0  0  0  0  0  0  0
   -5.6908    0.1254   -6.7262 H   0  0  0  0  0  0  0  0  0  0  0  0
   -6.0052    0.0487   -4.9606 H   0  0  0  0  0  0  0  0  0  0  0  0
  1  2  2  0  0  0  0
  2  3  1  0  0  0  0
  2  8  1  0  0  0  0
  3 11  1  0  0  0  0
  4  9  1  0  0  0  0
  4  3  2  0  0  0  0
  5  4  1  0  0  0  0
  6  5  2  0  0  0  0
  6  1  1  0  0  0  0
  7  1  1  0  0  0  0
 10  5  1  0  0  0  0
 11 12  1  0  0  0  0
 13 17  1  0  0  0  0
 14 13  1  0  0  0  0
 14 18  1  0  0  0  0
 14 19  1  0  0  0  0
 15 13  2  0  0  0  0
 16 13  2  0  0  0  0
 20 14  1  0  0  0  0
 21  6  1  0  0  0  0
 22 21  1  0  0  0  0
 22 25  1  0  0  0  0
 23 22  1  0  0  0  0
 24 22  1  0  0  0  0
M  RAD  3  11   2  12   3  17   2
M  END
