Coordinates from ORCA-job p-CH3O-Ph-N2-X-OTf-B3LYPG-6-31G_dp-scan-d09-49-n400
 OpenBabel08281821483D

 25 24  0  0  0  0  0  0  0  0999 V2000
   -1.9948   -0.8064   -5.3620 C   0  0  0  0  0  0  0  0  0  0  0  0
   -0.8762   -0.0047   -5.3048 C   0  0  0  0  0  0  0  0  0  0  0  0
   -1.0860    1.3915   -5.2769 C   0  0  0  0  0  0  0  0  0  0  0  0
   -2.3653    1.9803   -5.3126 C   0  0  0  0  0  0  0  0  0  0  0  0
   -3.4704    1.1540   -5.3807 C   0  0  0  0  0  0  0  0  0  0  0  0
   -3.2915   -0.2482   -5.4057 C   0  0  0  0  0  0  0  0  0  0  0  0
   -1.8964   -1.8859   -5.3923 H   0  0  0  0  0  0  0  0  0  0  0  0
    0.1421   -0.4085   -5.3059 H   0  0  0  0  0  0  0  0  0  0  0  0
   -2.4764    3.0592   -5.2954 H   0  0  0  0  0  0  0  0  0  0  0  0
   -4.4586    1.5936   -5.4173 H   0  0  0  0  0  0  0  0  0  0  0  0
   -0.0146    2.2423   -5.1893 N   0  0  0  0  0  0  0  0  0  0  0  0
    0.7828    3.0090   -5.0450 N   0  0  0  0  0  0  0  0  0  0  0  0
    2.3113    0.0821   -6.8673 S   0  0  0  0  0  0  0  0  0  0  0  0
    3.7268    1.1122   -6.2444 C   0  0  0  0  0  0  0  0  0  0  0  0
    2.8418   -0.6070   -8.0471 O   0  0  0  0  0  0  0  0  0  0  0  0
    1.2595    1.1116   -7.1265 O   0  0  0  0  0  0  0  0  0  0  0  0
    1.9864   -0.7700   -5.6873 O   0  0  0  0  0  0  0  0  0  0  0  0
    3.3268    1.8557   -5.1799 F   0  0  0  0  0  0  0  0  0  0  0  0
    4.7515    0.3497   -5.8466 F   0  0  0  0  0  0  0  0  0  0  0  0
    4.1641    1.9590   -7.1867 F   0  0  0  0  0  0  0  0  0  0  0  0
   -4.2958   -1.1299   -5.4701 O   0  0  0  0  0  0  0  0  0  0  0  0
   -5.6479   -0.6678   -5.5423 C   0  0  0  0  0  0  0  0  0  0  0  0
   -6.2603   -1.5666   -5.5977 H   0  0  0  0  0  0  0  0  0  0  0  0
   -5.8075   -0.0590   -6.4386 H   0  0  0  0  0  0  0  0  0  0  0  0
   -5.9171   -0.0959   -4.6475 H   0  0  0  0  0  0  0  0  0  0  0  0
  1  2  2  0  0  0  0
  2  3  1  0  0  0  0
  3 11  1  0  0  0  0
  4  9  1  0  0  0  0
  4  3  2  0  0  0  0
  5  4  1  0  0  0  0
  6  5  2  0  0  0  0
  6  1  1  0  0  0  0
  7  1  1  0  0  0  0
  8  2  1  0  0  0  0
 10  5  1  0  0  0  0
 11 12  1  0  0  0  0
 13 14  1  0  0  0  0
 13 17  1  0  0  0  0
 14 19  1  0  0  0  0
 14 18  1  0  0  0  0
 15 13  2  0  0  0  0
 16 13  2  0  0  0  0
 20 14  1  0  0  0  0
 21  6  1  0  0  0  0
 22 21  1  0  0  0  0
 22 25  1  0  0  0  0
 23 22  1  0  0  0  0
 24 22  1  0  0  0  0
M  RAD  3  11   2  12   3  17   2
M  END
