Coordinates from ORCA-job p-CH3O-Ph-N2-X-OTf-B3LYPG-6-31G_dp-scan-d09-49-n400
 OpenBabel08281821483D

 25 25  0  0  0  0  0  0  0  0999 V2000
   -3.1068   -1.6050   -5.5567 C   0  0  0  0  0  0  0  0  0  0  0  0
   -1.7709   -1.5001   -5.9001 C   0  0  0  0  0  0  0  0  0  0  0  0
   -1.1656   -0.2358   -5.9641 C   0  0  0  0  0  0  0  0  0  0  0  0
   -1.9037    0.9242   -5.6862 C   0  0  0  0  0  0  0  0  0  0  0  0
   -3.2446    0.8211   -5.3439 C   0  0  0  0  0  0  0  0  0  0  0  0
   -3.8551   -0.4465   -5.2762 C   0  0  0  0  0  0  0  0  0  0  0  0
   -3.6021   -2.5678   -5.4988 H   0  0  0  0  0  0  0  0  0  0  0  0
   -1.1774   -2.3798   -6.1232 H   0  0  0  0  0  0  0  0  0  0  0  0
   -1.4255    1.8964   -5.7435 H   0  0  0  0  0  0  0  0  0  0  0  0
   -3.8071    1.7221   -5.1330 H   0  0  0  0  0  0  0  0  0  0  0  0
    0.2008   -0.2120   -6.3251 N   0  0  0  0  0  0  0  0  0  0  0  0
    0.8482    0.7753   -6.4018 N   0  0  0  0  0  0  0  0  0  0  0  0
    3.3708    1.4230   -7.2913 S   0  0  0  0  0  0  0  0  0  0  0  0
    3.9572    1.9880   -5.6162 C   0  0  0  0  0  0  0  0  0  0  0  0
    4.5319    0.8603   -7.9666 O   0  0  0  0  0  0  0  0  0  0  0  0
    2.6183    2.5368   -7.8533 O   0  0  0  0  0  0  0  0  0  0  0  0
    2.4271    0.2124   -6.8766 O   0  0  0  0  0  0  0  0  0  0  0  0
    2.9121    2.3651   -4.8685 F   0  0  0  0  0  0  0  0  0  0  0  0
    4.6031    1.0008   -4.9935 F   0  0  0  0  0  0  0  0  0  0  0  0
    4.7819    3.0266   -5.7693 F   0  0  0  0  0  0  0  0  0  0  0  0
   -5.1491   -0.6526   -4.9531 O   0  0  0  0  0  0  0  0  0  0  0  0
   -5.9799    0.4699   -4.6651 C   0  0  0  0  0  0  0  0  0  0  0  0
   -6.9629    0.0591   -4.4362 H   0  0  0  0  0  0  0  0  0  0  0  0
   -6.0577    1.1400   -5.5294 H   0  0  0  0  0  0  0  0  0  0  0  0
   -5.6087    1.0287   -3.7983 H   0  0  0  0  0  0  0  0  0  0  0  0
  1  7  1  0  0  0  0
  1  6  2  0  0  0  0
  2  1  1  0  0  0  0
  3  2  2  0  0  0  0
  3  4  1  0  0  0  0
  4  5  2  0  0  0  0
  5  6  1  0  0  0  0
  5 10  1  0  0  0  0
  6 21  1  0  0  0  0
  8  2  1  0  0  0  0
  9  4  1  0  0  0  0
 11  3  1  0  0  0  0
 12 11  1  0  0  0  0
 13 17  1  0  0  0  0
 13 14  1  0  0  0  0
 14 19  1  0  0  0  0
 14 18  1  0  0  0  0
 15 13  2  0  0  0  0
 16 13  2  0  0  0  0
 17 12  1  0  0  0  0
 20 14  1  0  0  0  0
 21 22  1  0  0  0  0
 22 23  1  0  0  0  0
 22 25  1  0  0  0  0
 24 22  1  0  0  0  0
M  RAD  2  11   2  12   2
M  END
