Coordinates from ORCA-job p-CH3O-Ph-N2-X-OTf-B3LYPG-6-31G_dp-scan-d09-49-n400
 OpenBabel08281821483D

 25 25  0  0  0  0  0  0  0  0999 V2000
   -2.1363   -1.1874   -5.3475 C   0  0  0  0  0  0  0  0  0  0  0  0
   -0.8630   -0.6452   -5.3718 C   0  0  0  0  0  0  0  0  0  0  0  0
   -0.7106    0.7447   -5.4710 C   0  0  0  0  0  0  0  0  0  0  0  0
   -1.8259    1.5811   -5.5531 C   0  0  0  0  0  0  0  0  0  0  0  0
   -3.1072    1.0370   -5.5182 C   0  0  0  0  0  0  0  0  0  0  0  0
   -3.2673   -0.3534   -5.4182 C   0  0  0  0  0  0  0  0  0  0  0  0
   -2.2882   -2.2583   -5.2684 H   0  0  0  0  0  0  0  0  0  0  0  0
    0.0091   -1.2847   -5.3148 H   0  0  0  0  0  0  0  0  0  0  0  0
   -1.6860    2.6537   -5.6373 H   0  0  0  0  0  0  0  0  0  0  0  0
   -3.9635    1.6967   -5.5776 H   0  0  0  0  0  0  0  0  0  0  0  0
    0.5971    1.3325   -5.4744 N   0  0  0  0  0  0  0  0  0  0  0  0
    0.8786    2.2705   -4.6536 N   0  0  0  0  0  0  0  0  0  0  0  0
    1.7171    1.0550   -6.9552 S   0  0  0  0  0  0  0  0  0  0  0  0
    3.4460    0.6964   -6.2333 C   0  0  0  0  0  0  0  0  0  0  0  0
    1.2420   -0.2370   -7.4413 O   0  0  0  0  0  0  0  0  0  0  0  0
    1.7315    2.2315   -7.8099 O   0  0  0  0  0  0  0  0  0  0  0  0
    2.2082    2.8635   -5.0212 O   0  0  0  0  0  0  0  0  0  0  0  0
    3.3208    0.2806   -4.9797 F   0  0  0  0  0  0  0  0  0  0  0  0
    3.9371   -0.2913   -6.9831 F   0  0  0  0  0  0  0  0  0  0  0  0
    4.2277    1.7491   -6.3250 F   0  0  0  0  0  0  0  0  0  0  0  0
   -4.4633   -0.9883   -5.3839 O   0  0  0  0  0  0  0  0  0  0  0  0
   -5.6535   -0.2103   -5.4466 C   0  0  0  0  0  0  0  0  0  0  0  0
   -6.4773   -0.9229   -5.4059 H   0  0  0  0  0  0  0  0  0  0  0  0
   -5.7117    0.3582   -6.3826 H   0  0  0  0  0  0  0  0  0  0  0  0
   -5.7272    0.4785   -4.5962 H   0  0  0  0  0  0  0  0  0  0  0  0
  1  7  1  0  0  0  0
  2  1  1  0  0  0  0
  2  8  1  0  0  0  0
  3  2  2  0  0  0  0
  4  5  2  0  0  0  0
  4  3  1  0  0  0  0
  5  6  1  0  0  0  0
  6 21  1  0  0  0  0
  6  1  2  0  0  0  0
  9  4  1  0  0  0  0
 10  5  1  0  0  0  0
 11  3  1  0  0  0  0
 11 12  1  0  0  0  0
 13 14  1  0  0  0  0
 13 11  1  0  0  0  0
 14 18  1  0  0  0  0
 15 13  2  0  0  0  0
 16 13  2  0  0  0  0
 17 12  1  0  0  0  0
 19 14  1  0  0  0  0
 20 14  1  0  0  0  0
 22 23  1  0  0  0  0
 22 21  1  0  0  0  0
 22 25  1  0  0  0  0
 24 22  1  0  0  0  0
M  RAD  2  12   2  17   2
M  END
