Coordinates from ORCA-job p-CH3O-Ph-N2-X-OTf-B3LYPG-6-31G_dp-scan-d09-49-n400
 OpenBabel08281821483D

 25 24  0  0  0  0  0  0  0  0999 V2000
   -2.0933   -0.8966   -5.2619 C   0  0  0  0  0  0  0  0  0  0  0  0
   -0.9481   -0.1677   -5.0350 C   0  0  0  0  0  0  0  0  0  0  0  0
   -1.0720    1.2377   -4.9497 C   0  0  0  0  0  0  0  0  0  0  0  0
   -2.2975    1.9047   -5.0932 C   0  0  0  0  0  0  0  0  0  0  0  0
   -3.4366    1.1558   -5.3326 C   0  0  0  0  0  0  0  0  0  0  0  0
   -3.3403   -0.2502   -5.4187 C   0  0  0  0  0  0  0  0  0  0  0  0
   -2.0575   -1.9771   -5.3432 H   0  0  0  0  0  0  0  0  0  0  0  0
    0.0325   -0.6182   -4.9235 H   0  0  0  0  0  0  0  0  0  0  0  0
   -2.3450    2.9860   -5.0252 H   0  0  0  0  0  0  0  0  0  0  0  0
   -4.3868    1.6590   -5.4540 H   0  0  0  0  0  0  0  0  0  0  0  0
    0.0647    1.9660   -4.7165 N   0  0  0  0  0  0  0  0  0  0  0  0
    1.1010    2.3531   -4.5395 N   0  0  0  0  0  0  0  0  0  0  0  0
    2.3101    0.1400   -6.4887 S   0  0  0  0  0  0  0  0  0  0  0  0
    3.7208    1.2907   -6.8575 C   0  0  0  0  0  0  0  0  0  0  0  0
    2.7114   -1.1558   -7.0485 O   0  0  0  0  0  0  0  0  0  0  0  0
    1.1399    0.8113   -7.1083 O   0  0  0  0  0  0  0  0  0  0  0  0
    2.2430    0.1812   -4.9851 O   0  0  0  0  0  0  0  0  0  0  0  0
    3.4455    2.5271   -6.3916 F   0  0  0  0  0  0  0  0  0  0  0  0
    4.8510    0.8684   -6.2771 F   0  0  0  0  0  0  0  0  0  0  0  0
    3.9275    1.3818   -8.1782 F   0  0  0  0  0  0  0  0  0  0  0  0
   -4.3812   -1.0627   -5.6439 O   0  0  0  0  0  0  0  0  0  0  0  0
   -5.6860   -0.5092   -5.8362 C   0  0  0  0  0  0  0  0  0  0  0  0
   -6.3433   -1.3623   -5.9990 H   0  0  0  0  0  0  0  0  0  0  0  0
   -5.7102    0.1451   -6.7142 H   0  0  0  0  0  0  0  0  0  0  0  0
   -6.0153    0.0419   -4.9484 H   0  0  0  0  0  0  0  0  0  0  0  0
  1  2  2  0  0  0  0
  2  3  1  0  0  0  0
  2  8  1  0  0  0  0
  3 11  1  0  0  0  0
  4  9  1  0  0  0  0
  4  3  2  0  0  0  0
  5  4  1  0  0  0  0
  6  5  2  0  0  0  0
  6  1  1  0  0  0  0
  7  1  1  0  0  0  0
 10  5  1  0  0  0  0
 11 12  1  0  0  0  0
 13 17  1  0  0  0  0
 14 13  1  0  0  0  0
 14 18  1  0  0  0  0
 14 19  1  0  0  0  0
 15 13  2  0  0  0  0
 16 13  2  0  0  0  0
 20 14  1  0  0  0  0
 21  6  1  0  0  0  0
 22 21  1  0  0  0  0
 22 25  1  0  0  0  0
 23 22  1  0  0  0  0
 24 22  1  0  0  0  0
M  RAD  3  11   2  12   3  17   2
M  END
