Coordinates from ORCA-job p-CH3O-Ph-N2-X-OTf-B3LYPG-6-31G_dp-scan-d09-49-n400
 OpenBabel08281821483D

 25 24  0  0  0  0  0  0  0  0999 V2000
   -1.9821   -0.7952   -5.3789 C   0  0  0  0  0  0  0  0  0  0  0  0
   -0.8688    0.0148   -5.3339 C   0  0  0  0  0  0  0  0  0  0  0  0
   -1.0889    1.4093   -5.3034 C   0  0  0  0  0  0  0  0  0  0  0  0
   -2.3733    1.9883   -5.3247 C   0  0  0  0  0  0  0  0  0  0  0  0
   -3.4727    1.1539   -5.3806 C   0  0  0  0  0  0  0  0  0  0  0  0
   -3.2834   -0.2471   -5.4079 C   0  0  0  0  0  0  0  0  0  0  0  0
   -1.8753   -1.8739   -5.4108 H   0  0  0  0  0  0  0  0  0  0  0  0
    0.1510   -0.3854   -5.3474 H   0  0  0  0  0  0  0  0  0  0  0  0
   -2.4923    3.0664   -5.3060 H   0  0  0  0  0  0  0  0  0  0  0  0
   -4.4645    1.5859   -5.4059 H   0  0  0  0  0  0  0  0  0  0  0  0
   -0.0238    2.2691   -5.2278 N   0  0  0  0  0  0  0  0  0  0  0  0
    0.7690    3.0428   -5.0951 N   0  0  0  0  0  0  0  0  0  0  0  0
    2.3192    0.0870   -6.9032 S   0  0  0  0  0  0  0  0  0  0  0  0
    3.7086    1.0908   -6.1851 C   0  0  0  0  0  0  0  0  0  0  0  0
    2.8886   -0.5364   -8.1011 O   0  0  0  0  0  0  0  0  0  0  0  0
    1.2714    1.1263   -7.1396 O   0  0  0  0  0  0  0  0  0  0  0  0
    1.9642   -0.8274   -5.7803 O   0  0  0  0  0  0  0  0  0  0  0  0
    3.2685    1.7805   -5.1000 F   0  0  0  0  0  0  0  0  0  0  0  0
    4.7242    0.3150   -5.7899 F   0  0  0  0  0  0  0  0  0  0  0  0
    4.1722    1.9845   -7.0701 F   0  0  0  0  0  0  0  0  0  0  0  0
   -4.2817   -1.1362   -5.4612 O   0  0  0  0  0  0  0  0  0  0  0  0
   -5.6380   -0.6842   -5.5180 C   0  0  0  0  0  0  0  0  0  0  0  0
   -6.2441   -1.5876   -5.5668 H   0  0  0  0  0  0  0  0  0  0  0  0
   -5.8123   -0.0764   -6.4122 H   0  0  0  0  0  0  0  0  0  0  0  0
   -5.9014   -0.1147   -4.6200 H   0  0  0  0  0  0  0  0  0  0  0  0
  1  2  2  0  0  0  0
  2  3  1  0  0  0  0
  3 11  1  0  0  0  0
  4  9  1  0  0  0  0
  4  3  2  0  0  0  0
  5  4  1  0  0  0  0
  6  5  2  0  0  0  0
  6  1  1  0  0  0  0
  7  1  1  0  0  0  0
  8  2  1  0  0  0  0
 10  5  1  0  0  0  0
 11 12  1  0  0  0  0
 13 14  1  0  0  0  0
 13 17  1  0  0  0  0
 14 19  1  0  0  0  0
 14 18  1  0  0  0  0
 15 13  2  0  0  0  0
 16 13  2  0  0  0  0
 20 14  1  0  0  0  0
 21  6  1  0  0  0  0
 22 21  1  0  0  0  0
 22 25  1  0  0  0  0
 23 22  1  0  0  0  0
 24 22  1  0  0  0  0
M  RAD  3  11   2  12   3  17   2
M  END
