Coordinates from ORCA-job p-CH3O-Ph-N2-X-OTf-B3LYPG-6-31G_dp-scan-d09-49-n400
 OpenBabel08281821483D

 25 24  0  0  0  0  0  0  0  0999 V2000
   -2.0424   -0.8685   -5.2568 C   0  0  0  0  0  0  0  0  0  0  0  0
   -0.8983   -0.1122   -5.1358 C   0  0  0  0  0  0  0  0  0  0  0  0
   -1.0475    1.2916   -5.1329 C   0  0  0  0  0  0  0  0  0  0  0  0
   -2.2934    1.9332   -5.2593 C   0  0  0  0  0  0  0  0  0  0  0  0
   -3.4268    1.1528   -5.3906 C   0  0  0  0  0  0  0  0  0  0  0  0
   -3.3083   -0.2553   -5.3893 C   0  0  0  0  0  0  0  0  0  0  0  0
   -1.9902   -1.9515   -5.2710 H   0  0  0  0  0  0  0  0  0  0  0  0
    0.1056   -0.5358   -5.0655 H   0  0  0  0  0  0  0  0  0  0  0  0
   -2.3588    3.0160   -5.2617 H   0  0  0  0  0  0  0  0  0  0  0  0
   -4.3904    1.6334   -5.4967 H   0  0  0  0  0  0  0  0  0  0  0  0
    0.0560    2.0917   -4.9829 N   0  0  0  0  0  0  0  0  0  0  0  0
    0.8804    2.8146   -4.7796 N   0  0  0  0  0  0  0  0  0  0  0  0
    2.2488    0.0953   -6.6991 S   0  0  0  0  0  0  0  0  0  0  0  0
    3.7367    1.1972   -6.5471 C   0  0  0  0  0  0  0  0  0  0  0  0
    2.6243   -0.9132   -7.6959 O   0  0  0  0  0  0  0  0  0  0  0  0
    1.1729    1.0495   -7.1010 O   0  0  0  0  0  0  0  0  0  0  0  0
    2.0669   -0.3901   -5.2981 O   0  0  0  0  0  0  0  0  0  0  0  0
    3.4945    2.1822   -5.6487 F   0  0  0  0  0  0  0  0  0  0  0  0
    4.8089    0.5140   -6.1277 F   0  0  0  0  0  0  0  0  0  0  0  0
    4.0313    1.7768   -7.7186 F   0  0  0  0  0  0  0  0  0  0  0  0
   -4.3440   -1.0947   -5.5082 O   0  0  0  0  0  0  0  0  0  0  0  0
   -5.6674   -0.5755   -5.6698 C   0  0  0  0  0  0  0  0  0  0  0  0
   -6.3149   -1.4479   -5.7468 H   0  0  0  0  0  0  0  0  0  0  0  0
   -5.7461    0.0218   -6.5843 H   0  0  0  0  0  0  0  0  0  0  0  0
   -5.9635    0.0250   -4.8026 H   0  0  0  0  0  0  0  0  0  0  0  0
  1  2  2  0  0  0  0
  2  3  1  0  0  0  0
  2  8  1  0  0  0  0
  3 11  1  0  0  0  0
  4  3  2  0  0  0  0
  5  6  2  0  0  0  0
  5  4  1  0  0  0  0
  6  1  1  0  0  0  0
  7  1  1  0  0  0  0
  9  4  1  0  0  0  0
 10  5  1  0  0  0  0
 11 12  1  0  0  0  0
 13 14  1  0  0  0  0
 13 17  1  0  0  0  0
 14 19  1  0  0  0  0
 14 18  1  0  0  0  0
 15 13  2  0  0  0  0
 16 13  2  0  0  0  0
 20 14  1  0  0  0  0
 21  6  1  0  0  0  0
 22 21  1  0  0  0  0
 22 25  1  0  0  0  0
 23 22  1  0  0  0  0
 24 22  1  0  0  0  0
M  RAD  3  11   2  12   3  17   2
M  END
