22
Coordinates from ORCA-job p-CH3O-Ph-N2-X-BF4-B3LYPG-6-31G_dp-scan-d09-49-n400
  C   -0.88626670808634      0.27806351631477      1.06120891291385
  C   0.27573549262133      0.02982820909423      0.35290040653325
  C   0.49446613530788      0.76167932146313     -0.82900779564616
  C   -0.41041834252313      1.74350372610255     -1.30757159190608
  C   -1.55127052985304      1.97553457192394     -0.58313884245463
  C   -1.79684738426322      1.25009012015156      0.61261128566301
  H   -1.04503690293026     -0.25610231337890      1.98801665836752
  H   1.03300324165919     -0.66554966617046      0.69468248101553
  H   -0.19567329104922      2.29392681391595     -2.21635341996572
  H   -2.27593819436789      2.71890469745177     -0.89477706309344
  N   1.60433188666456      0.51899673603301     -1.58063286932994
  N   2.43089051967989      0.33779576297593     -2.31025073963559
  B   3.09840435905191      0.63639603459452      1.45761046634391
  F   4.23980266198281      0.69494129192781      2.22960432034484
  F   3.03411722136345     -0.58588275172884      0.69864350533150
  F   1.94300296681531      0.67952438811010      2.27377805526123
  F   3.02081335752399      1.68230811740315      0.50621938288449
  O   -2.93048288947937      1.57495365832987      1.24304742126264
  C   -3.24322898116724      0.95316212656567      2.49649707092249
  H   -4.18659588690737      1.39603548811271      2.81208205140168
  H   -2.46727813440722      1.16361546280304      3.23918747757442
  H   -3.36563059763609     -0.12832531199557      2.37714282621119
