22
Coordinates from ORCA-job p-CH3O-Ph-N2-X-BF4-B3LYPG-6-31G_dp-scan-d09-49-n400
  C   -0.87776356515294      0.60835438473541      1.14141439935573
  C   0.31840083496825      0.42242105504819      0.46993585607690
  C   0.39400088086929      0.87542547414829     -0.86070737320278
  C   -0.69023393261881      1.49950352835104     -1.52832195691467
  C   -1.86251229197682      1.67584990474461     -0.83564760852694
  C   -1.96767208828288      1.23678398237430      0.50936759748608
  H   -0.94050446931643      0.27226881539261      2.16823932809551
  H   1.17259860114005     -0.04897645374292      0.96418031068220
  H   -0.58740041758074      1.83365043864418     -2.55458801645896
  H   -2.72098609050001      2.15375724472955     -1.29315543307315
  N   1.54856353782040      0.71058523635029     -1.57492654359012
  N   2.44344365672545      0.59552384496863     -2.23118696025396
  B   3.51024909669423      0.34308991069977      1.63131107950939
  F   4.72601148262218     -0.30235957042310      1.67125954452535
  F   3.17321214682479      0.64489430155372      0.25764649128678
  F   2.47119115346188     -0.52923120008086      2.09552467521585
  F   3.48680218012960      1.51838932189714      2.36268099011492
  O   -3.14951097705374      1.46794041184998      1.08817992070002
  C   -3.35338443222102      1.08437210676283      2.45604005276340
  H   -4.37201202901636      1.38816449981905      2.69258999294390
  H   -2.65003376272903      1.60197496383168      3.11492559034458
  H   -3.25255951480739      0.00101779834555      2.57673806291998
