22
Coordinates from ORCA-job p-CH3O-Ph-N2-X-BF4-B3LYPG-6-31G_dp-scan-d09-49-n400
  C   -1.54821739494347      0.74911991810380      1.52991925086096
  C   -0.16673495804253      0.64674318592199      1.42105528981823
  C   0.45814869703390      0.92333339312273      0.18938027961234
  C   -0.32495724837613      1.30156960688106     -0.92072531965583
  C   -1.69759063514517      1.40432990033657     -0.81077896362226
  C   -2.32283490334659      1.12780080250301      0.41959976001302
  H   -2.01416298230486      0.53120556406329      2.48293311662797
  H   0.43335126313701      0.35685431489215      2.26935802494696
  H   0.17503967282333      1.51044604830715     -1.86030114664719
  H   -2.31475104331711      1.69490965370281     -1.65346334618083
  N   1.83153958002447      0.86235352673993     -0.07037594476428
  N   2.79110844545405      0.59438706101417      0.59464074580606
  B   5.13903081040391      0.52247366959408      0.21159120973535
  F   2.48930238381799      0.24037694629698      2.04333538711016
  F   4.99196014110785      0.79322956749624     -1.07901215052188
  F   5.40433430267382      1.50555977233576      1.05843730189735
  F   5.26805426512089     -0.73535292515586      0.60471480520892
  O   -3.66815347069079      1.25372627312321      0.43185685395356
  C   -4.37546904216947      0.98973356655596      1.64064970839048
  H   -5.42858993751782      1.15233062522411      1.40904007494106
  H   -4.06931996714073      1.67429550950905      2.44017171736281
  H   -4.23118797860258     -0.04602598056823      1.96947334510704
