22
Coordinates from ORCA-job p-CH3O-Ph-N2-X-BF4-B3LYPG-6-31G_dp-scan-d09-49-n400
  C   -0.90623272691753      0.27867342584535      1.08206146949197
  C   0.26405468768612      0.02981368410226      0.38770695673338
  C   0.49836947774413      0.76128507579699     -0.79097893548541
  C   -0.39817050338057      1.74341462429733     -1.28060271240504
  C   -1.54812762889872      1.97723604477423     -0.56987845404921
  C   -1.81012288519817      1.25192344987091      0.62163547867514
  H   -1.08127926825229     -0.25882736888293      2.00413710172203
  H   1.01808795426713     -0.66742309803726      0.73121775656065
  H   -0.17100376709967      2.29452649139099     -2.18593934663942
  H   -2.26775358985809      2.72169196204626     -0.89051208538507
  N   1.62465779513478      0.52039791114729     -1.52088388463319
  N   2.47275003674671      0.33730404299321     -2.22312048815524
  B   3.13658761692041      0.63953562521877      1.39750179669542
  F   4.30640410655702      0.68822483419760      2.12238718740006
  F   3.03181561467585     -0.58670981408521      0.64815337093865
  F   2.01037925801467      0.70240937645801      2.24942220487636
  F   3.04128030891235      1.68236812629418      0.44201011892429
  O   -2.95276327515829      1.57633361822638      1.23701815356452
  C   -3.28586846002452      0.94860424066873      2.48178098535960
  H   -4.23408617281851      1.39010128874310      2.78451535912040
  H   -2.52235469115015      1.15482223907697      3.23853381507216
  H   -3.40672388790271     -0.13230578014320      2.35533415161797
