13
Coordinates from ORCA-job o-NO2-Ph+-B3LYPG-aug-cc-pVDZ-scan-d09-49-n400
  C   -1.55955720331610      0.79926855672376     -0.95370847942592
  C   -0.76960243140910      0.92494646185185      0.17009928872901
  C   -1.16679603772430      1.15500760134520      1.62397378459961
  C   -2.50906720881466      1.14480542781993      1.36868635677243
  C   -3.47960684446505      1.06510905213179      0.44527119473096
  C   -2.95726539990574      0.86354818114661     -0.85688538375223
  H   -1.07678192432956      0.63407473720518     -1.91709091847668
  H   0.31509123724139      0.78379233961823      0.15627769046822
  H   -3.63158297283548      0.79011551777336     -1.70822430696546
  H   -4.54034030154077      1.18235832570898      0.66972103360479
  N   1.38908916381975      3.68862484420358      2.89948998433503
  O   -0.35073979398838      1.20235027763795      2.55846129135469
  O   0.86995971726798      2.88929867683361      3.43992846402559
