13
Coordinates from ORCA-job o-NO2-Ph+-B3LYPG-aug-cc-pVDZ-scan-d09-49-n400
  C   -1.39450548803917      1.17632181034767     -0.70933789378606
  C   -0.75160538831087      1.03731813417089      0.52891204066080
  C   -1.34135565218637      0.99739912975470      1.95367866013029
  C   -2.61712584856794      0.70908271649067      1.50113533665416
  C   -3.43553805659194      0.88374160360647      0.45337834949002
  C   -2.77515916628993      1.08536502346221     -0.79755314042546
  H   -0.78116643060206      1.30740641168450     -1.60217512783349
  H   0.26423194451616      0.63761129653417      0.58700225613036
  H   -3.34436154129526      1.21895401368719     -1.71529746674711
  H   -4.51894821085419      0.95286683613614      0.57803617755764
  N   1.02706612881880      3.08151256117707      1.54530081098551
  O   -0.63504908688289      1.05599802455284      2.94948836427685
  O   0.83631679628564      2.97972243839550      2.62343163290653
