13
Coordinates from ORCA-job o-NO2-Ph+-B3LYPG-aug-cc-pVDZ-scan-d09-49-n400
  C   -1.52094269306229      0.83259520286591     -0.92050812891075
  C   -0.73565777292683      0.87939105997886      0.21389886310997
  C   -1.13446782737040      1.06839493777070      1.67401581590476
  C   -2.47603565049144      1.09861524978976      1.41276843954409
  C   -3.43922049935542      1.10334946217066      0.47845714119265
  C   -2.91540814993118      0.94025460816455     -0.82887410558865
  H   -1.03597979027740      0.69254074067717     -1.88683004532882
  H   0.33847586748139      0.67143090665988      0.20673841743492
  H   -3.58405969420097      0.93497647795536     -1.68787650876197
  H   -4.49448032964732      1.26517611686126      0.70210516931777
  N   1.02949246492205      3.72418501933988      2.64247337950073
  O   -0.31736543902079      1.05505244002857      2.60919787785624
  O   0.81844951388058      2.85733777773747      3.28043368472909
