4-Br-Ph+-UB3LYP-aug-cc-pVDZ-Triplet.log
 OpenBabel05291812263D
Gaussian home/ubuntu/g09/g09 #p Temperature=298.15 opt=(maxcycles=1024) SCF=(max
 11 11  0  0  0  0  0  0  0  0999 V2000
    2.2026    1.2572   -0.0003 C   0  0  0  0  0  0  0  0  0  0  0  0
    2.8225   -0.0002    0.0001 C   0  0  0  0  0  0  0  0  0  0  0  0
    2.2027   -1.2573    0.0000 C   0  0  0  0  0  0  0  0  0  0  0  0
    0.8197   -1.2573   -0.0000 C   0  0  0  0  0  0  0  0  0  0  0  0
    0.1317    0.0003    0.0001 C   0  0  0  0  0  0  0  0  0  0  0  0
    0.8196    1.2576    0.0002 C   0  0  0  0  0  0  0  0  0  0  0  0
    2.7772    2.1839   -0.0003 H   0  0  0  0  0  0  0  0  0  0  0  0
    2.7773   -2.1840   -0.0001 H   0  0  0  0  0  0  0  0  0  0  0  0
    0.2510   -2.1869    0.0002 H   0  0  0  0  0  0  0  0  0  0  0  0
    0.2514    2.1875    0.0005 H   0  0  0  0  0  0  0  0  0  0  0  0
   -1.7157   -0.0001   -0.0000 Br  0  0  0  0  0  0  0  0  0  0  0  0
  1  2  2  0  0  0  0
  1  6  1  0  0  0  0
  3  2  1  0  0  0  0
  4  3  2  0  0  0  0
  4  5  1  0  0  0  0
  4  9  1  0  0  0  0
  5  6  2  0  0  0  0
  6 10  1  0  0  0  0
  7  1  1  0  0  0  0
  8  3  1  0  0  0  0
 11  5  1  0  0  0  0
M  RAD  1   2   2
M  END
