20
Coordinates from ORCA-job p-NO2-Ph-N2-BF4-B3LYPG-aug-cc-pVDZ-scan-d09-49-n400
  C   -1.39875347575901     -0.62921746863732      0.18994763551276
  C   -0.00474283509286     -0.65334059619692      0.18325302478316
  C   0.67473344377022      0.53778221069392      0.41851044024811
  C   0.03647589846431      1.75064098361208      0.65857242571461
  C   -1.35781855339574      1.76976901231321      0.66510753107132
  C   -2.05305364257452      0.58108891198557      0.43121829068442
  H   -1.98065203281244     -1.52977414929205      0.01187167713020
  H   0.55005133540041     -1.57099788399132     -0.00198656309957
  H   0.62160558744520      2.65057355892688      0.83601848413161
  H   -1.90899219387981      2.68867176385367      0.84740649687423
  N   -3.52722986223561      0.60469001509380      0.43730635771968
  O   -4.11608344098154     -0.45255933310213      0.22504555429398
  O   -4.08027665434685      1.68121819894669      0.64834708418585
  N   2.21744752154847      1.44964690592722     -3.52167563135277
  N   2.73733576798498      1.45793687450014     -4.49607940085673
  B   3.69198443080680      1.55946967858186      2.16408659281193
  F   2.03702496641750      0.51361377490349      0.40193595278487
  F   3.25561606168765      0.72891011471644      3.10287102748840
  F   4.72357660918019      1.22510052414990      1.40192802964578
  F   3.12505106837255      2.75567690301486      2.02951499022815
