20
Coordinates from ORCA-job p-NO2-Ph-N2-BF4-B3LYPG-aug-cc-pVDZ-scan-d09-49-n400
  C   -1.42393681666908     -0.63740679299550      0.23049450169204
  C   -0.02994447398550     -0.66356344478625      0.22203362184257
  C   0.65141928060873      0.52856059174913      0.44648204406485
  C   0.01527093153896      1.74436856092112      0.67714487899500
  C   -1.37900250146260      1.76551105118257      0.68529145800562
  C   -2.07615983686157      0.57586755592651      0.46225700150623
  H   -2.00734459569576     -1.53859694037950      0.06073478216013
  H   0.52341166288376     -1.58351983139942      0.04397016081575
  H   0.60201129295531      2.64477329585701      0.84674740312674
  H   -1.92867477686226      2.68669731693712      0.86049662472283
  N   -3.55033446691545      0.60162316602216      0.47000240990007
  O   -4.14092274580165     -0.45751553759663      0.27257282524890
  O   -4.10154642870807      1.67973736474702      0.67765034862003
  N   2.39018123790345      1.50760036853958     -3.76400271916325
  N   2.92691571075728      1.51393399405140     -4.72928864880738
  B   3.68241779954300      1.55426709852413      2.17516046008743
  F   2.01372795753766      0.50245124428609      0.42824779258758
  F   3.27245930663631      0.70882429074255      3.11250506682495
  F   4.70633884315016      1.24157538665889      1.39368485363324
  F   3.09701261944716      2.74371126101204      2.06101513413665
