20
Coordinates from ORCA-job p-NO2-Ph-N2-BF4-B3LYPG-aug-cc-pVDZ-scan-d09-49-n400
  C   -1.38129050597375     -0.62299582148219      0.15783660732678
  C   0.01272371070636     -0.64588691374199      0.15212797595741
  C   0.69104093498326      0.54394325167387      0.39699936040615
  C   0.05155488333387      1.75435982986598      0.64578799458614
  C   -1.34274925450446      1.77226801768937      0.65144101893169
  C   -2.03683587838549      0.58486358021971      0.40785602120984
  H   -1.96229491401161     -1.52264783947760     -0.02755880307916
  H   0.56835890566868     -1.56164404601736     -0.03979727707377
  H   0.63568518629319      2.65353622627836      0.83017405024419
  H   -1.89483984014185      2.68927764581418      0.84037293582102
  N   -3.51100082803372      0.60719774218312      0.41285294925214
  O   -4.09881321200295     -0.44990642073399      0.19694891418562
  O   -4.06515586593178      1.68055489742059      0.63680321063331
  N   2.09914959256175      1.40749115167851     -3.34238732467658
  N   2.60677541066780      1.41646844312429     -4.32317694584681
  B   3.69740461287502      1.56495237418788      2.15332525305071
  F   2.05332061445567      0.52085798108585      0.38137762175014
  F   3.23681922251471      0.75105165782259      3.09517605997495
  F   4.73488173155108      1.20818194690577      1.40955423039344
  F   3.14856549337411      2.76697629550305      1.99748614695276
