20
Coordinates from ORCA-job p-NO2-Ph-N2-BF4-B3LYPG-aug-cc-pVDZ-scan-d09-49-n400
  C   -1.34289970248236     -0.61124239712298      0.08921565029033
  C   0.05111284705117     -0.63353060230387      0.08634966277265
  C   0.72871850413118      0.55168327405515      0.35458914112994
  C   0.08793989694798      1.75678154202268      0.62486759003982
  C   -1.30630559859317      1.77422655458449      0.62788941358044
  C   -1.99957464166071      0.59146678296956      0.36024802028165
  H   -1.92313177150235     -1.50754698091824     -0.11393333036229
  H   0.60703723856196     -1.54584021188610     -0.12074504695995
  H   0.67100562441868      2.65286541893086      0.82711961537358
  H   -1.85909317524106      2.68732158424888      0.83298346282100
  N   -3.47362884920701      0.61318522727356      0.36242919770676
  O   -4.06055760567103     -0.43726245877325      0.11389862730020
  O   -4.02868242880809      1.68452182832371      0.59388858966161
  N   1.82697802721694      1.32865085533526     -2.95945231486653
  N   2.30675541811724      1.32398479891057     -3.95429536932060
  B   3.70988531833157      1.58228338949132      2.13074554440264
  F   2.09078038149550      0.52869047415059      0.34291891755463
  F   3.19223468963056      0.81710492807593      3.08383852224701
  F   4.75844538765687      1.16663607629875      1.43471287908190
  F   3.20628043960608      2.79491991633313      1.91593122726516
