20
Coordinates from ORCA-job p-NO2-Ph-N2-BF4-B3LYPG-aug-cc-pVDZ-scan-d09-49-n400
  C   -1.41052397692884     -0.63259760353543      0.20706081071691
  C   -0.01649587395989     -0.65775288493441      0.20029232964271
  C   0.66373484977869      0.53395191160100      0.43095847892417
  C   0.02638622667089      1.74836546418105      0.66608714771287
  C   -1.36791733466537      1.76838638766173      0.67260855206519
  C   -2.06390573180274      0.57919116601028      0.44344401041355
  H   -1.99309578977166     -1.53340065552891      0.03247015475511
  H   0.53777535238690     -1.57645711104988      0.01855639246398
  H   0.61224619870757      2.64856638664640      0.83993379806679
  H   -1.91852171444650      2.68838212972466      0.85109478123516
  N   -3.53809627828569      0.60386725719365      0.44931739367581
  O   -4.12762336594549     -0.45604766009888      0.25285665828599
  O   -4.09032608401508      1.67937281455967      0.66754258318480
  N   2.29776482723613      1.47518274777197     -3.63167609365211
  N   2.82630778964593      1.48249221095323     -4.60165350738101
  B   3.68776460898531      1.55678939653116      2.16959171937842
  F   2.02607352579038      0.50896254675992      0.41401418923610
  F   3.26532530882216      0.71764835169802      3.10707916202328
  F   4.71561440295058      1.23455114549830      1.39721167920246
  F   3.11081305884659      2.74944599835649      2.04640976004980
