20
Coordinates from ORCA-job p-NO2-Ph-N2-BF4-B3LYPG-aug-cc-pVDZ-scan-d09-49-n400
  C   -0.96785889364668     -0.45452906569025     -0.03053280848420
  C   0.23870308146503     -0.24988902335474     -0.68740350329206
  C   0.67218236728425      1.07542868466102     -0.82499349202634
  C   -0.00573516868051      2.19607808943130     -0.32716514577676
  C   -1.20990375393928      1.96684631480951      0.32603407418874
  C   -1.66253241523412      0.65336866153670      0.45656370301572
  H   -1.36098340634606     -1.45483774556772      0.12792483212209
  H   0.84696005552941     -1.07666360107136     -1.04290351501535
  H   0.42064859310161      3.19133027066813     -0.41398642963212
  H   -1.78461906812711      2.78433925578427      0.75226932755633
  N   -2.95137918575896      0.42012881389217      1.16543786499121
  O   -3.32991297463437     -0.73952105431820      1.26944644679765
  O   -3.54445421766252      1.40549670725877      1.58517965488204
  N   1.90871927515680      1.29084150431803     -1.44795758592804
  N   2.86392309078916      1.46508064057768     -1.98168101113980
  B   2.63804685268725      0.92464113144998      1.58314183237190
  F   2.88328948021480     -0.07302650643999      0.56680183887267
  F   1.33108663027973      0.71724910428378      2.09106862383844
  F   3.60477739136757      0.87896999222978      2.56679585349183
  F   2.65234226615400      2.19756782554115      0.89915943916606
