15
Coordinates from ORCA-job o-NO2-Ph-N2+-B3LYPG-aug-cc-pVDZ-scan-d09-49-n400
  C   -1.52467211740200      0.40980892098289     -0.77026258728501
  C   -0.38861059789932      0.44045446391821     -0.02408564876111
  C   -0.27282724156776      1.20657835324396      1.20227191439206
  C   -1.71762665099617      2.01409234893626      1.51522476715818
  C   -2.85680464653016      1.90631697631482      0.64613753426877
  C   -2.74791451816777      1.12615485668613     -0.45469443015056
  H   -1.51891910425261     -0.19830406148847     -1.67630302608981
  H   0.50889815971399     -0.11296334398976     -0.30439026414255
  N   3.35327568091250      0.10222949311031     -1.90285139218673
  N   4.34836450469378      0.01881480763735     -2.37386054014514
  H   -3.59640504735108      1.02628367019505     -1.12994303845153
  H   -3.76077174215765      2.45468900037250      0.90700488237474
  N   -1.48444687043567      2.62623296526646      2.58079059945771
  O   0.61847574336725      1.35042541351269      1.97754139966551
  O   -0.72571555192739      2.87348613530160      3.42681982989546
