15
Coordinates from ORCA-job o-NO2-Ph-N2+-B3LYPG-aug-cc-pVDZ-scan-d09-49-n400
  C   -1.91342824915704      0.09843015209828     -1.06106817549453
  C   -0.52082929001739      0.09244559058917     -0.98562030671877
  C   0.09254601824075      0.89439714072518     -0.00651084605645
  C   -0.66226552182340      1.68954415414215      0.88346885403443
  C   -2.04186811263687      1.68205404250255      0.79295458370088
  C   -2.66581704248851      0.88444608807861     -0.18162882457744
  H   -2.40775386118164     -0.51590383827949     -1.81252850120314
  H   0.08456741467053     -0.51164557119948     -1.65988748978123
  N   1.48270323227250      0.86087100672525      0.03655257511838
  N   2.57974124244934      0.71471493271644     -0.06937608174932
  H   -3.75357031007538      0.88227419872865     -0.24862632803368
  H   -2.61611520516967      2.29808237236785      1.48311082716270
  N   0.01480239664526      2.52269677550935      1.90296250003699
  O   1.24422156053924      2.46498369129615      1.90517949302034
  O   -0.68263427226771      3.18690926399934      2.64041772054083
