15
Coordinates from ORCA-job o-NO2-Ph-N2+-B3LYPG-aug-cc-pVDZ-scan-d09-49-n400
  C   -1.63545937202051      0.27087579807675     -0.76866479419914
  C   -0.47597987654266      0.22547691662513     -0.06079826747057
  C   -0.23534201202132      1.04646100630418      1.11059232722840
  C   -1.57609464811549      2.02137457146475      1.41576854167668
  C   -2.75120346669895      1.98367852663391      0.58921460406429
  C   -2.76448968044215      1.13168066025944     -0.46243985102106
  H   -1.72724418754795     -0.38764587065341     -1.63390743002640
  H   0.35200265029861     -0.43167704132033     -0.32930878824028
  N   3.12043405054654      0.44994565084503     -1.54134637421578
  N   4.13983258379450      0.51703017442397     -1.96001291608624
  H   -3.64286379086853      1.08256229060514     -1.10426683857458
  H   -3.58278483898602      2.63992515806492      0.84151155553904
  N   -1.24284891660906      2.66784756255050      2.43280528229416
  O   0.69365348439286      1.13914770521161      1.84809515796113
  O   -0.43731197917991      2.88761689090841      3.24215779107037
