2-HOOC-Ph-N2+.log
 OpenBabel05181815553D
Gaussian home/ubuntu/g09/g09 # opt freq rb3lyp/6-31G(d,p)
 16 16  0  0  0  0  0  0  0  0999 V2000
   -1.8252    1.0192    0.0000 C   0  0  0  0  0  0  0  0  0  0  0  0
   -0.4438    0.7635   -0.0000 C   0  0  0  0  0  0  0  0  0  0  0  0
    0.1077   -0.5382    0.0000 C   0  0  0  0  0  0  0  0  0  0  0  0
   -0.7841   -1.6039    0.0000 C   0  0  0  0  0  0  0  0  0  0  0  0
   -2.1673   -1.3741   -0.0000 C   0  0  0  0  0  0  0  0  0  0  0  0
   -2.6840   -0.0751    0.0000 C   0  0  0  0  0  0  0  0  0  0  0  0
   -2.1998    2.0368    0.0001 H   0  0  0  0  0  0  0  0  0  0  0  0
   -0.3916   -2.6141    0.0000 H   0  0  0  0  0  0  0  0  0  0  0  0
   -2.8459   -2.2208   -0.0000 H   0  0  0  0  0  0  0  0  0  0  0  0
   -3.7557    0.0905   -0.0000 H   0  0  0  0  0  0  0  0  0  0  0  0
    0.3831    1.8788   -0.0000 N   0  0  0  0  0  0  0  0  0  0  0  0
    0.8930    2.8686   -0.0001 N   0  0  0  0  0  0  0  0  0  0  0  0
    1.5964   -0.6924    0.0000 C   0  0  0  0  0  0  0  0  0  0  0  0
    2.3310    0.2745    0.0001 O   0  0  0  0  0  0  0  0  0  0  0  0
    1.9822   -1.9645   -0.0001 O   0  0  0  0  0  0  0  0  0  0  0  0
    2.9562   -1.9988   -0.0001 H   0  0  0  0  0  0  0  0  0  0  0  0
  1  7  1  0  0  0  0
  2  3  2  0  0  0  0
  2  1  1  0  0  0  0
  3 13  1  0  0  0  0
  4  3  1  0  0  0  0
  4  8  1  0  0  0  0
  5  4  2  0  0  0  0
  5  6  1  0  0  0  0
  6  1  2  0  0  0  0
  9  5  1  0  0  0  0
 10  6  1  0  0  0  0
 11  2  1  0  0  0  0
 12 11  1  0  0  0  0
 13 14  2  0  0  0  0
 15 16  1  0  0  0  0
 15 13  1  0  0  0  0
M  RAD  2  11   2  12   3
M  END
