3-NO2-Ph-N2-OTf.log
 OpenBabel05181815553D
Gaussian home/ubuntu/g09/g09 # opt freq rb3lyp/6-31G(d,p)
 23 22  0  0  0  0  0  0  0  0999 V2000
   -1.8850    2.0037   -0.0566 C   0  0  0  0  0  0  0  0  0  0  0  0
   -0.8783    1.0903   -0.3525 C   0  0  0  0  0  0  0  0  0  0  0  0
   -1.2390   -0.2601   -0.4669 C   0  0  0  0  0  0  0  0  0  0  0  0
   -2.5445   -0.7292   -0.2927 C   0  0  0  0  0  0  0  0  0  0  0  0
   -3.5035    0.2226    0.0195 C   0  0  0  0  0  0  0  0  0  0  0  0
   -3.1999    1.5780    0.1405 C   0  0  0  0  0  0  0  0  0  0  0  0
   -1.6380    3.0549    0.0373 H   0  0  0  0  0  0  0  0  0  0  0  0
    0.1546    1.3808   -0.4829 H   0  0  0  0  0  0  0  0  0  0  0  0
   -2.8103   -1.7748   -0.3821 H   0  0  0  0  0  0  0  0  0  0  0  0
   -0.2682   -1.2021   -0.7987 N   0  0  0  0  0  0  0  0  0  0  0  0
    0.3674   -2.0384   -1.1876 N   0  0  0  0  0  0  0  0  0  0  0  0
    2.5602   -0.6743    0.6802 S   0  0  0  0  0  0  0  0  0  0  0  0
    3.2075    0.7756   -0.2921 C   0  0  0  0  0  0  0  0  0  0  0  0
    1.1696   -0.2268    1.0088 O   0  0  0  0  0  0  0  0  0  0  0  0
    3.4787   -0.8177    1.8069 O   0  0  0  0  0  0  0  0  0  0  0  0
    2.5502   -1.7808   -0.3226 O   0  0  0  0  0  0  0  0  0  0  0  0
    2.3413    1.0627   -1.3051 F   0  0  0  0  0  0  0  0  0  0  0  0
    3.2990    1.8674    0.4756 F   0  0  0  0  0  0  0  0  0  0  0  0
    4.3987    0.5217   -0.8323 F   0  0  0  0  0  0  0  0  0  0  0  0
   -3.9933    2.2730    0.3865 H   0  0  0  0  0  0  0  0  0  0  0  0
   -4.8967   -0.2293    0.2211 N   0  0  0  0  0  0  0  0  0  0  0  0
   -5.7276    0.6289    0.4991 O   0  0  0  0  0  0  0  0  0  0  0  0
   -5.1195   -1.4296    0.0922 O   0  0  0  0  0  0  0  0  0  0  0  0
  1  7  1  0  0  0  0
  1  6  2  0  0  0  0
  2  1  1  0  0  0  0
  3  2  2  0  0  0  0
  3  4  1  0  0  0  0
  4  5  2  0  0  0  0
  5  6  1  0  0  0  0
  5 21  1  0  0  0  0
  6 20  1  0  0  0  0
  8  2  1  0  0  0  0
  9  4  1  0  0  0  0
 10  3  1  0  0  0  0
 11 10  1  0  0  0  0
 12 14  2  0  0  0  0
 12 15  1  0  0  0  0
 13 18  1  0  0  0  0
 13 12  1  0  0  0  0
 16 12  2  0  0  0  0
 17 13  1  0  0  0  0
 19 13  1  0  0  0  0
 21 22  2  0  0  0  0
 23 21  2  0  0  0  0
M  RAD  3  10   2  11   3  15   2
M  END
