4-NO2-Ph-N2-OTs.log
 OpenBabel05181815553D
Gaussian home/ubuntu/g09/g09 #p Temperature=298.15 opt freq rb3lyp/6-31G(d,p)
 33 34  0  0  0  0  0  0  0  0999 V2000
    2.7517    0.9960   -0.0135 C   0  0  0  0  0  0  0  0  0  0  0  0
    1.8035   -0.0217   -0.0153 C   0  0  0  0  0  0  0  0  0  0  0  0
    2.2427   -1.3591   -0.0051 C   0  0  0  0  0  0  0  0  0  0  0  0
    3.6136   -1.6653    0.0059 C   0  0  0  0  0  0  0  0  0  0  0  0
    4.5581   -0.6477    0.0084 C   0  0  0  0  0  0  0  0  0  0  0  0
    4.1058    0.6694   -0.0014 C   0  0  0  0  0  0  0  0  0  0  0  0
    2.4561    2.0374   -0.0210 H   0  0  0  0  0  0  0  0  0  0  0  0
    0.7490    0.2053   -0.0245 H   0  0  0  0  0  0  0  0  0  0  0  0
    3.9139   -2.7067    0.0127 H   0  0  0  0  0  0  0  0  0  0  0  0
    5.6209   -0.8514    0.0173 H   0  0  0  0  0  0  0  0  0  0  0  0
    5.1012    1.7621    0.0009 N   0  0  0  0  0  0  0  0  0  0  0  0
    6.2884    1.4448    0.0105 O   0  0  0  0  0  0  0  0  0  0  0  0
    4.6765    2.9151   -0.0070 O   0  0  0  0  0  0  0  0  0  0  0  0
    1.4151   -2.5053   -0.0066 N   0  0  0  0  0  0  0  0  0  0  0  0
    0.2420   -2.7229   -0.0061 N   0  0  0  0  0  0  0  0  0  0  0  0
   -3.1770    0.5024    1.2184 C   0  0  0  0  0  0  0  0  0  0  0  0
   -3.7044    1.7908    1.2067 C   0  0  0  0  0  0  0  0  0  0  0  0
   -3.9844    2.4499    0.0002 C   0  0  0  0  0  0  0  0  0  0  0  0
   -3.7196    1.7831   -1.2048 C   0  0  0  0  0  0  0  0  0  0  0  0
   -3.1920    0.4942   -1.2146 C   0  0  0  0  0  0  0  0  0  0  0  0
   -2.9214   -0.1334    0.0021 C   0  0  0  0  0  0  0  0  0  0  0  0
   -2.9755   -0.0143    2.1502 H   0  0  0  0  0  0  0  0  0  0  0  0
   -3.9080    2.2919    2.1491 H   0  0  0  0  0  0  0  0  0  0  0  0
   -3.9350    2.2779   -2.1479 H   0  0  0  0  0  0  0  0  0  0  0  0
   -3.0020   -0.0285   -2.1455 H   0  0  0  0  0  0  0  0  0  0  0  0
   -2.2532   -1.7896    0.0034 S   0  0  0  0  0  0  0  0  0  0  0  0
   -2.5628   -2.4354    1.2769 O   0  0  0  0  0  0  0  0  0  0  0  0
   -0.6589   -1.3634   -0.0027 O   0  0  0  0  0  0  0  0  0  0  0  0
   -2.5714   -2.4408   -1.2653 O   0  0  0  0  0  0  0  0  0  0  0  0
   -4.5899    3.8322    0.0012 C   0  0  0  0  0  0  0  0  0  0  0  0
   -5.6835    3.7784    0.0674 H   0  0  0  0  0  0  0  0  0  0  0  0
   -4.2421    4.4214    0.8546 H   0  0  0  0  0  0  0  0  0  0  0  0
   -4.3453    4.3781   -0.9142 H   0  0  0  0  0  0  0  0  0  0  0  0
  1  6  1  0  0  0  0
  2  1  2  0  0  0  0
  2  3  1  0  0  0  0
  3  4  2  0  0  0  0
  4  5  1  0  0  0  0
  4  9  1  0  0  0  0
  5 10  1  0  0  0  0
  6 11  1  0  0  0  0
  6  5  2  0  0  0  0
  7  1  1  0  0  0  0
  8  2  1  0  0  0  0
 11 12  2  0  0  0  0
 13 11  2  0  0  0  0
 14 15  1  0  0  0  0
 14  3  1  0  0  0  0
 15 28  1  0  0  0  0
 16 22  1  0  0  0  0
 17 16  1  0  0  0  0
 17 23  1  0  0  0  0
 18 30  1  0  0  0  0
 18 17  2  0  0  0  0
 19 18  1  0  0  0  0
 20 19  2  0  0  0  0
 20 21  1  0  0  0  0
 21 26  1  0  0  0  0
 21 16  2  0  0  0  0
 24 19  1  0  0  0  0
 25 20  1  0  0  0  0
 26 27  2  0  0  0  0
 28 26  1  0  0  0  0
 29 26  2  0  0  0  0
 30 31  1  0  0  0  0
 30 32  1  0  0  0  0
 33 30  1  0  0  0  0
M  RAD  2  14   2  15   2
M  END
