x2-Ph-N2-OTf-v2.log
 OpenBabel05181815563D
Gaussian home/ubuntu/g09/g09 #p Temperature=298.15 opt freq rb3lyp/6-31G(d,p)
 34 33  0  0  0  0  0  0  0  0999 V2000
   -3.8744   -0.8007   -1.0143 C   0  0  0  0  0  0  0  0  0  0  0  0
   -4.0335   -0.7606    0.3809 C   0  0  0  0  0  0  0  0  0  0  0  0
   -5.2430   -1.0496    1.0453 C   0  0  0  0  0  0  0  0  0  0  0  0
   -6.3325   -1.3955    0.2619 C   0  0  0  0  0  0  0  0  0  0  0  0
   -6.2062   -1.4470   -1.1336 C   0  0  0  0  0  0  0  0  0  0  0  0
   -4.9920   -1.1524   -1.7624 C   0  0  0  0  0  0  0  0  0  0  0  0
   -2.9161   -0.5397   -1.4503 H   0  0  0  0  0  0  0  0  0  0  0  0
   -5.3073   -1.0009    2.1265 H   0  0  0  0  0  0  0  0  0  0  0  0
   -7.2808   -1.6243    0.7352 H   0  0  0  0  0  0  0  0  0  0  0  0
   -7.0681   -1.7176   -1.7353 H   0  0  0  0  0  0  0  0  0  0  0  0
   -4.9140   -1.1914   -2.8432 H   0  0  0  0  0  0  0  0  0  0  0  0
   -2.9547   -0.4298    1.1838 N   0  0  0  0  0  0  0  0  0  0  0  0
   -2.1454   -0.1936    1.9145 N   0  0  0  0  0  0  0  0  0  0  0  0
    0.0591    0.6318   -0.3673 S   0  0  0  0  0  0  0  0  0  0  0  0
    0.1984   -0.2615    0.8227 O   0  0  0  0  0  0  0  0  0  0  0  0
    1.2127    0.5696   -1.2908 O   0  0  0  0  0  0  0  0  0  0  0  0
   -1.2877    0.5924   -0.9807 O   0  0  0  0  0  0  0  0  0  0  0  0
    0.1562    2.3412    0.3585 C   0  0  0  0  0  0  0  0  0  0  0  0
    1.3711    2.5260    0.9157 F   0  0  0  0  0  0  0  0  0  0  0  0
   -0.7734    2.4932    1.3130 F   0  0  0  0  0  0  0  0  0  0  0  0
   -0.0255    3.2715   -0.5773 F   0  0  0  0  0  0  0  0  0  0  0  0
    2.2075   -0.9471    0.5630 H   0  0  0  0  0  0  0  0  0  0  0  0
    3.2157   -1.3126    0.3771 C   0  0  0  0  0  0  0  0  0  0  0  0
    4.1901   -0.4962   -0.2258 C   0  0  0  0  0  0  0  0  0  0  0  0
    3.6116   -2.6032    0.7082 C   0  0  0  0  0  0  0  0  0  0  0  0
    5.5096   -0.9053   -0.5047 C   0  0  0  0  0  0  0  0  0  0  0  0
    4.9124   -3.0441    0.4421 C   0  0  0  0  0  0  0  0  0  0  0  0
    2.8946   -3.2690    1.1753 H   0  0  0  0  0  0  0  0  0  0  0  0
    5.8571   -2.2018   -0.1616 C   0  0  0  0  0  0  0  0  0  0  0  0
    6.2145   -0.2265   -0.9712 H   0  0  0  0  0  0  0  0  0  0  0  0
    5.1979   -4.0570    0.7077 H   0  0  0  0  0  0  0  0  0  0  0  0
    6.8612   -2.5583   -0.3618 H   0  0  0  0  0  0  0  0  0  0  0  0
    3.8535    0.8000   -0.5581 N   0  0  0  0  0  0  0  0  0  0  0  0
    3.5895    1.8478   -0.8219 N   0  0  0  0  0  0  0  0  0  0  0  0
  1  2  2  0  0  0  0
  2  3  1  0  0  0  0
  2 12  1  0  0  0  0
  3  8  1  0  0  0  0
  4  9  1  0  0  0  0
  4  3  2  0  0  0  0
  5  4  1  0  0  0  0
  6  5  2  0  0  0  0
  6  1  1  0  0  0  0
  7  1  1  0  0  0  0
 10  5  1  0  0  0  0
 11  6  1  0  0  0  0
 12 13  1  0  0  0  0
 14 18  1  0  0  0  0
 14 15  1  0  0  0  0
 16 14  2  0  0  0  0
 17 14  2  0  0  0  0
 18 19  1  0  0  0  0
 18 20  1  0  0  0  0
 21 18  1  0  0  0  0
 23 22  1  0  0  0  0
 23 25  2  0  0  0  0
 24 23  1  0  0  0  0
 25 28  1  0  0  0  0
 26 24  2  0  0  0  0
 26 29  1  0  0  0  0
 27 31  1  0  0  0  0
 27 25  1  0  0  0  0
 29 27  2  0  0  0  0
 30 26  1  0  0  0  0
 32 29  1  0  0  0  0
 33 24  1  0  0  0  0
 34 33  1  0  0  0  0
M  RAD  5  12   2  13   3  15   2  33   2  34   3
M  END
