2-HOOC-4-Br-Ph-N2+-UB3LYP-aug-cc-pVDZ-Singlet.log
 OpenBabel05291812263D
Gaussian home/ubuntu/g09/g09 #p Temperature=298.15 opt=(maxcycles=1024) SCF=(max
 16 16  0  0  0  0  0  0  0  0999 V2000
    0.5067   -1.9954    0.0000 C   0  0  0  0  0  0  0  0  0  0  0  0
    1.4628   -0.9618    0.0000 C   0  0  0  0  0  0  0  0  0  0  0  0
    1.1131    0.4111   -0.0000 C   0  0  0  0  0  0  0  0  0  0  0  0
   -0.2385    0.7278   -0.0000 C   0  0  0  0  0  0  0  0  0  0  0  0
   -1.2087   -0.2942    0.0000 C   0  0  0  0  0  0  0  0  0  0  0  0
   -0.8381   -1.6497    0.0000 C   0  0  0  0  0  0  0  0  0  0  0  0
    0.8176   -3.0390    0.0000 H   0  0  0  0  0  0  0  0  0  0  0  0
   -0.5417    1.7723   -0.0000 H   0  0  0  0  0  0  0  0  0  0  0  0
   -1.5975   -2.4294    0.0000 H   0  0  0  0  0  0  0  0  0  0  0  0
    2.7915   -1.3565   -0.0000 N   0  0  0  0  0  0  0  0  0  0  0  0
    3.8009   -1.8263   -0.0000 N   0  0  0  0  0  0  0  0  0  0  0  0
   -3.0292    0.1696   -0.0000 Br  0  0  0  0  0  0  0  0  0  0  0  0
    2.1985    1.4460   -0.0000 C   0  0  0  0  0  0  0  0  0  0  0  0
    3.3705    1.1360   -0.0000 O   0  0  0  0  0  0  0  0  0  0  0  0
    1.7234    2.6916    0.0000 O   0  0  0  0  0  0  0  0  0  0  0  0
    2.4697    3.3173    0.0000 H   0  0  0  0  0  0  0  0  0  0  0  0
  1  6  1  0  0  0  0
  2  1  2  0  0  0  0
  3 13  1  0  0  0  0
  3  4  2  0  0  0  0
  3  2  1  0  0  0  0
  4  5  1  0  0  0  0
  5  6  2  0  0  0  0
  6  9  1  0  0  0  0
  7  1  1  0  0  0  0
  8  4  1  0  0  0  0
 10  2  1  0  0  0  0
 11 10  1  0  0  0  0
 12  5  1  0  0  0  0
 13 15  1  0  0  0  0
 14 13  2  0  0  0  0
 15 16  1  0  0  0  0
M  RAD  2  10   2  11   3
M  END
