4-HOOC-Ph-N2+-UB3LYP-aug-cc-pVDZ-Triplet.log
 OpenBabel05291812263D
Gaussian home/ubuntu/g09/g09 #p Temperature=298.15 opt=(maxcycles=1024) SCF=(max
 16 16  0  0  0  0  0  0  0  0999 V2000
   -1.0594   -1.2601    0.1290 C   0  0  0  0  0  0  0  0  0  0  0  0
   -1.7886    0.0069   -0.0076 C   0  0  0  0  0  0  0  0  0  0  0  0
   -1.1137    1.2550   -0.1481 C   0  0  0  0  0  0  0  0  0  0  0  0
    0.2587    1.2457   -0.1522 C   0  0  0  0  0  0  0  0  0  0  0  0
    1.0055   -0.0055   -0.0329 C   0  0  0  0  0  0  0  0  0  0  0  0
    0.3067   -1.2370    0.1361 C   0  0  0  0  0  0  0  0  0  0  0  0
   -1.6212   -2.1880    0.2175 H   0  0  0  0  0  0  0  0  0  0  0  0
   -1.6793    2.1787   -0.2510 H   0  0  0  0  0  0  0  0  0  0  0  0
    0.8159    2.1743   -0.2653 H   0  0  0  0  0  0  0  0  0  0  0  0
    0.8654   -2.1651    0.2434 H   0  0  0  0  0  0  0  0  0  0  0  0
   -3.1273   -0.0178    0.0140 N   0  0  0  0  0  0  0  0  0  0  0  0
   -4.2719   -0.0556    0.0088 N   0  0  0  0  0  0  0  0  0  0  0  0
    2.4577    0.0788    0.0001 C   0  0  0  0  0  0  0  0  0  0  0  0
    2.9817    1.1266    0.3938 O   0  0  0  0  0  0  0  0  0  0  0  0
    3.1339   -1.0158   -0.3267 O   0  0  0  0  0  0  0  0  0  0  0  0
    4.0884   -0.8764   -0.1871 H   0  0  0  0  0  0  0  0  0  0  0  0
  1  6  1  0  0  0  0
  1  7  1  0  0  0  0
  2 11  1  0  0  0  0
  2  1  2  0  0  0  0
  3  2  1  0  0  0  0
  4  3  2  0  0  0  0
  4  5  1  0  0  0  0
  5 13  1  0  0  0  0
  5  6  2  0  0  0  0
  6 10  1  0  0  0  0
  8  3  1  0  0  0  0
  9  4  1  0  0  0  0
 12 11  1  0  0  0  0
 13 14  2  0  0  0  0
 15 16  1  0  0  0  0
 15 13  1  0  0  0  0
M  RAD  2  11   2  12   3
M  END
